LAMMPS (10 Dec 2025)
units metal
boundary p p s
atom_style atomic
timestep 0.002
read_data data.interface
Reading data file ...
  orthogonal box = (0 0 0) to (61.06 60.701582 125.19494)
  reading atoms ...
  32814 atoms

pair_style eam/alloy
pair_coeff * * /mnt/c/Users/iwash/Documents/Repositories/Lammps/potentials/AlCu.eam.alloy Al Cu
Reading eam/alloy potential file /mnt/c/Users/iwash/Documents/Repositories/Lammps/potentials/AlCu.eam.alloy with DATE: 2008-10-01

neighbor 2.0 bin
neigh_modify delay 10 check yes

thermo 100
thermo_style custom step temp pe press pxx pyy lx ly lz

print '=== Phase 0: Shake (High-T limit) ==='
=== Phase 0: Shake (High-T limit) ===
velocity all create 1000.0 20689 dist gaussian
fix shake all nve/limit 0.1
run 1000
Step          Temp          PotEng         Press           Pxx            Pyy             Lx             Ly             Lz
0   1000          -111476.9       23751.649      23219.594      26745.998      61.06          60.701582      121.49868
       800   588.30145     -109726.81 Loop time of 20.3565 on 4 procs for 1000 steps with 32814 atoms

=== Phase 1: 0K Relaxation ===
Setting up cg style minimization ...
  Unit style    : metal
  Current step  : 1000
 (src/min.cpp:222)
velocity all set 0 0 0

# x,y方向の箱寸法 + 原子位置を同時最適化（z方向はshrink-wrap）
print '=== Phase 1: 0K Relaxation ==='
=== Phase 1: 0K Relaxation ===
fix relax all box/relax x 0.0 y 0.0 vmax 0.001
minimize 1.0e-8 1.0e-10 10000 100000
 (src/min.cpp:222)
Step    Loop time of 4.5856 on 4 procs for 117 steps with 32814 atoms

Minimization stats:
  Stopping criterion = linesearch alpha is zero
  Energy initial, next-to-last, final =
  Force two-norm initial, final = 4068.7632 195.43214
  Force max component initial, final = 3818.6245 118.46943
  Final line search alpha, max atom move = 2.5440455e-13 3.0139161e-11
  Iterations, force evaluations = 117 199

=== Phase 2: Annealing at 600.0K for 10.0ps ===
Setting up Verlet run ...
  Unit style    : metal
  Current step  : 0
  Time step     : 0.002
Step          Temp          PotEng         Press           Pxx            Pyy             Lx             Ly             Lz
0   600           -109897.98      934.36504      5796.56        6199.4423      59.852449      61.793461      128.0346
       100   575.28502     -109652.5unfix relax

# 界面近傍の原子配置を緩和（ミスフィット軽減）
print '=== Phase 2: Annealing at 600.0K for 10.0ps ==='
=== Phase 2: Annealing at 600.0K for 10.0ps ===
reset_timestep 0
velocity all create 600.0 20689 dist gaussian
fix ann all npt temp 600.0 600.0 0.1 x 0.0 0.0 1.0 y 0.0 0.0 1.0
run 5000
Step          Temp          PotEng         Press           Pxx            Pyy             Lx             Ly             Lz
0   600           -109897.98      934.36504      5796.56        6199.4423      59.852449      61.793461      128.0346
Averages over the last 11 of 21 rows, steps 1000 to 2000:
Temp PotEng Press Pxx Pyy Lx Ly Lz
600.934 -109753 2095.56 242.448 -133.73 62.0312 61.8663 123.558
      5000   600.12256     -109743.14      1259.0309      185.10205      125.73679      62.401489      Other   |            | 0.2224     |            |       |  0.23

=== Phase 2b: Cooling 600.0K -> 300.0K ===
Setting up Verlet run ...
  Unit style    : metal
  Current step  : 5000
  Time step     : 0.002
Step          Temp          PotEng         Press           Pxx            Pyy             Lx             Ly             Lz
5000   600.12256     -109743.14      1258.9365      185.08816      125.72736      62.401489      61.818734      123.95463
      5200   591.81566     -109784.09      1335.8515      265.70175      367.09462     unfix ann

print '=== Phase 2b: Cooling 600.0K -> 300.0K ==='
=== Phase 2b: Cooling 600.0K -> 300.0K ===
fix cool all npt temp 600.0 300.0 0.1 x 0.0 0.0 1.0 y 0.0 0.0 1.0
run 5000
Step          Temp          PotEng         Press           Pxx            Pyy             Lx             Ly             Lz
5000   600.12256     -109743.14      1258.9365      185.08816      125.72736      62.401489      61.818734      123.95463
Averages over the last 11 of 22 rows, steps 6100 to 7100:
Temp PotEng Press Pxx Pyy Lx Ly Lz
507.381 -110188 -1010.15 -44.0919 6.47493 61.5835 61.8047 124.227
      8300   407.4156      -110727.17      1259.9214      98.839128      145.92499      61.434.42847     -110577.44      1260.7078      41.432699      543.5132       62.061558      61.532972      122.2941
      9800  Pair    | 65.1       | 78.35      | 90.701     | 137.8 | 80.45

=== Phase 3: Define Grips ===
1632 atoms in group bottom
945 atoms in group top
30237 atoms in group mobile
Bottom grip: 1632 atoms
Top grip:    945 atoms
Mobile:      30237 atoms
=== Phase 4: Equilibration with Grips ===
Setting up Verlet run ...
  Unit style    : metal
  Current step  : 0
  Time step     : 0.002
Step          Temp          PotEng         Press           Pxx            Pyy             Lx             Ly             Lz
0   279.8611      -111196.52     -1120.324      -470.66536     -259.79392      61.429005      61.45213       122.80817
       100   288.01496     -111154.38     -733.16853     -125.05143     -303.3711  unfix cool

# 焼きなまし後の座標を基準にグリップ領域を定義
print '=== Phase 3: Define Grips ==='
=== Phase 3: Define Grips ===
variable zmin equal bound(all,zmin)
variable zmax equal bound(all,zmax)
variable grip_thick equal 5.0
variable zlo_grip equal 1.40398942315948+5
variable zhi_grip equal 124.187119363721-5

region rgn_bot block INF INF INF INF INF 6.40398942315948
region rgn_top block INF INF INF INF 119.187119363721 INF
group bottom region rgn_bot
1632 atoms in group bottom
group top region rgn_top
945 atoms in group top
group mobile subtract all bottom top
30237 atoms in group mobile

print 'Bottom grip: $(count(bottom)) atoms'
Bottom grip: 1632 atoms
print 'Top grip:    $(count(top)) atoms'
Top grip:    945 atoms
print 'Mobile:      $(count(mobile)) atoms'
Mobile:      30237 atoms

print '=== Phase 4: Equilibration with Grips ==='
=== Phase 4: Equilibration with Grips ===
reset_timestep 0
velocity bottom set 0.0 0.0 0.0
velocity top set 0.0 0.0 0.0
# グリップ: nve（時間積分）+ setforce 0（力ゼロ）→ 等速運動
fix nve_bot bottom nve
fix nve_top top nve
fix freeze_bot bottom setforce 0.0 0.0 0.0
fix freeze_top top setforce 0.0 0.0 0.0
fix eq mobile npt temp 300.0 300.0 0.1 x 0.0 0.0 1.0 y 0.0 0.0 1.0
run 5000
Step          Temp          PotEng         Press           Pxx            Pyy             Lx             Ly             Lz
0   279.8611      -111196.52     -1120.324      -470.66536     -259.79392      61.429005      61.45213       122.80817
Loop time of 98.2805 on 4 procs for 5000 steps with 32814 atoms

=== Phase 5: Tensile Test ===
Initial grip distance L0 = 117.661921598959 Ang
Pull velocity = 0.235323843197918 Ang/ps (erate=0.002/ps)
Setting up Verlet run ...
  Unit style    : metal
  Current step  : 0
  Time step     : 0.002
Step          Temp         v_strain     v_stress_zz        Pxx            Pyy             Lx             Ly           v_Lmat
0   300.44053     -4.9518573e-15  0.11868857     565.48715      372.1714       61.458922      61.477923      117.66192
Averages over the last 6 of 11 rows, steps 500 to 1000:
Temp v_strain v_stress_zz Pxx Pyy Lx Ly v_Lmat
276.502 0.003 0.608853 -3085.58 -2553 61.4589 61.4779 118.015
      1100   277.77027      0.0044         0.82548146    -4480.4714     -3359.855       61.458922      61.477923      1unfix eq

print '=== Phase 5: Tensile Test ==='
=== Phase 5: Tensile Test ===
reset_timestep 0

# グリップ重心間距離で初期材料長を定義
variable zcm_bot equal xcm(bottom,z)
variable zcm_top equal xcm(top,z)
variable tmp_L equal v_zcm_top-v_zcm_bot
variable L0 equal 117.661921598959
Initial grip distance L0 = 117.661921598959 Ang

# 引っ張り速度 = erate × L0
variable vpull equal 0.002*v_L0
velocity top set 0.      1600   274.61449      0.0064         1.1593045     -6443.2575     -4559.6601      61.458922      61.477923      118.41496
     26000   276.765279.8786      61.458922      61.477923      128.62801
