LAMMPS (11 Feb 2026 - Development - d97c5bd)
package gpu 1
units metal
boundary p p p
atom_style atomic
timestep 0.002
read_data data.crystal
Reading data file ...
  orthogonal box = (0 0 0) to (79.53 79.53 79.53)
  reading atoms ...
  42592 atoms

pair_style eam/alloy
pair_coeff * * Cu_zhou.eam.alloy Cu
Reading eam/alloy potential file Cu_zhou.eam.alloy with DATE: 2007-10-12

neighbor 2.0 bin
neigh_modify delay 10 check yes

thermo 100
thermo_style custom step temp pe press pxx pyy pzz lx ly lz

print '=== Phase 1: 0K Relaxation ==='
=== Phase 1: 0K Relaxation ===
fix relax all box/relax aniso 0.0 vmax 0.001
minimize 1.0e-8 1.0e-10 10000 100000

CITE-CITE-CITE-CITE-CITE-CITE-CITE-CITE-CITE-CITE-CITE-CITE-CITE

Your simulation uses code contributions which should be cited:

- GPU package (short-range, long-range and three-body potentials): https://doi.org/10.1016/j.cpc.2010.12.021, https://doi.org/10.1016/j.cpc.2011.10.012, https://doi.org/10.1016/j.cpc.2013.08.002, https://doi.org/10.1016/j.commatsci.2014.10.068, https://doi.org/10.1016/j.cpc.2016.10.020, https://doi.org/10.3233/APC200086

@Article{Brown11,
 author = {W. M. Brown and P. Wang and S. J. Plimpton and A. N. Tharrington},
 title = {Implementing Molecular Dynamics on Hybrid High Performance Computers---Short Range Forces},
 journal = {Comput.\ Phys.\ Commun.},
 year =    2011,
 volume =  182,
 pages =   {898--911},
 doi =     {10.1016/j.cpc.2010.12.021}
}

@Article{Brown12,
 aDone.

Setting up cg style minimization ...
  Unit style    : metal
  Current step  : 0
 (src/min.cpp:222)
Step          Temp          PotEng         Press           Pxx            Pyy            Pzz             Lx             Ly             Lz
0   0             -150767.31     -214.0568      -214.05668     -214.05672     -214.057        79.53          79.53          79.53
Loop time of 0.279279 on 1 procs for 3 steps with 42592 atoms

Minimization stats:
  Stopping criterion = linesearch alpha is zero
  Energy initial, next-to-last, final =
  Force two-norm initial, final = 116.40516 5.6800879
  Force max component initial, final = 67.206617 3.2796001
  Final line search alpha, max atom move = 2.9078982e-10 9.5367432e-10
  Iterations, force evaluations = 3 46

=== Phase 2: Equilibration at 300.0K ===

      Device Time Info (average):
Data Transfer:   0.0146 s.
Neighbor copy:   0.0000 s.
Neighbor build:  0.0018 s.
Force calc:      0.1581 s.
Device Overhead: 0.0012 s.
CPU Neighbor:    0.0011 s.
CPU Cast/Pack:   0.0249 s.
CPU Driver_Time: 0.0011 s.
CPU Idle_Time:   0.1471 s.
Average split:   1.0000.
Max Mem / Proc:  164.21 MB.
Prefetch mode:   None.
Vector width:    32.
Lanes / atom:    4.
Pair block:      256.
Neigh block:     128.
Neigh mode:      Hybrid (binning on host) with subgroup support.
Neigh sorting:   Unavailable or disabled.

- Using acceleration for eam/alloy:
-  with 1 proc(s) per device.
-  with 1 thread(s) per proc.
-  Horizontal vector operations: ENABLED
-  Shared memory system: No
Device 0: NVIDIA RTX A4000, 48 CUs, 15/16 GB, 1.6 GHZ (Mixed Precision)

Initializing Device and compiling on process 0...Done.
Initializing Device 0 on core 0...Done.

Setting up Verlet run ...
  Unit style    : metal
  Current step  : 0
  Time step     : 0.002
Step          Temp          PotEng         Press           Pxx            Pyy            Pzz             Lx             Ly             Lz
0   300           -150767.32      3517.8841      3508.3293      3528.0851      3517.2379      79.525691      79.525691      79.525691
Averages over the last 13 of 26 rows, steps 1300 to 2500:
Temp PotEng Press Pxx Pyy Pzz Lx Ly Lz
300.106 -149069 -140.008 -123.028 -148.839 -148.156 79.7504 79.75 79.7481
Loop time of 12.4947 on 1 procs for 2500 steps with 42592 atoms

=== Phase 3: Tension ===

      Device Time Info (average):
Data Transfer:   0.7046 s.
Neighbor copy:   0.0000 s.
Neighbor build:  0.0018 s.
Force calc:      7.1482 s.
Device Overhead: 0.0466 s.
CPU Neighbor:    0.0008 s.
Cunfix eq

print '=== Phase 3: Tension ==='
=== Phase 3: Tension ===
reset_timestep 0

# 初期z寸法の記録
variable tmp equal lz
variable lz0 equal 79.7487466170273
variable tmp delete

# z軸変形 + x,yゼロ圧力（Poisson収縮を許容）
fix deform_fix all deform 1 z erate 0.001 remap x
fix npt_fix all npt temp 300.0 300.0 0.1 x 0.0 0.0 1.0 y 0.0 0.0 1.0

# ひずみ・応力（sigma = -P [GPa]）
variable strain equal (lz-v_lz0)/v_lz0
variable stress equal -pzz/10000

# 欠陥解析用compute
# stress/atom: 単位は bar*Å³（実応力はボロノイ体積で割る必要あり）
compute peratom all stress/atom NULL
compute cna all cna/atom 3.087
compute csym all centro/atom fcc

thermo 100
thermo_style custom step temp v_strain v_stress pxx pyy pzz lx ly lz

dump 1 all custom 500 dump.lammpstrj id type x y z c_cna c_csym c_peratom[1] c_peratDone.

Setting up Verlet run ...
  Unit style    : metal
  Current step  : 0
  Time step     : 0.002
Step          Temp         v_strain       v_stress         Pxx            Pyy            Pzz             Lx             Ly             Lz
0   298.54308      1.7819534e-16 -0.026993144    487.90013      449.63731      269.93144      79.721483      79.745441      79.748747
Averages over the last 8 of 15 rows, steps 700 to 1400:
Temp v_strain v_stress Pxx Pyy Pzz Lx Ly Lz
299.976 0.0021 0.151275 86.8611 118.557 -1512.75 79.6744 79.6757 79.9162
      7000   299.51511      0.014          1.10116        125.94112     -197.70566     -11011.6        79.299.51511      0.014          1.10116        125.94112     -197.70566     -11011.6        79.283406      79.327683      80.865229
     37700   298.81372      0.075460851.094      77.565808      77.618621      85.745852
     46000   298.18639      0.092          7.1973352     -17.54719      -263.74089     -71973.352      77.151499      77.0.092          7.1973352     -17.54719      -263.74089     -71973.352      77.151499      77.256107      87.085631
     51600   297.40863      0.1032         7.8544627     -127.71663     -368.2675.962868
     55000   301.25312      0.11           8.1545971     - 55100   296.05411      0.1102         8.1643309     -296.11076     -48.748271     -81643.309      76.801359      76.828837      88.537058
     60000   301.21386.14448     -86286.483      76.620707      76.63367       89.302646
     68300   299.30711      0.1366         9.2298791      180.01941      229.75134     -92298.791      76.359.30711      0.1366         9.2298791      180.01941      229.75134     -92298.791      76.358639      76.207374      90.642425
     71100   299.3819       0.1422         9.3951636      324.27822      115.8151      -
    107300   299.95111      0.2146         3.0389076      199.82335      423.83886     -30389.076      74.260364      71.2.2146         3.0389076      199.82335      423.83886     -30389.076      74.260364      71.250436      96.862828
    121300   300.35243.39419     -29006.135      72.771857      71.032439      99.079843
    129600   299.90942      0.2592         3.7075564     -307.05875     -618.95935     -37075.564      72.371.90942      0.2592         3.7075564     -307.05875     -618.95935     -37075.564      72.371241      70.64861       100.41962
    138000   301.10223      0.276          2.358072.048005      69.818059      101.74345
Loop time of 1196.69 on 1 procs for 150000 steps with 42592 atoms

      Device Time Info (average):
Data Transfer:   42.5867 s.
Neighbor copy:   0.0348 s.
Neighbor build:  1.6755 s.
Force calc:      473.4802 s.
Device Overhead: 2.8191 s.
CPU Neighbor:    0.7442 s.
CPU Cast/Pack:   71.5625 s.
CPU Driver_Time: 2.3282 s.
CPU Idle_Time:   424.4296 s.
Average split:   1.0000.
Max Mem / Proc:  161.40 MB.
Prefetch mode:   None.
Vector width:    32.
Lanes / atom:    4.
Pair block:      256.
Neigh block:     128.
Neigh mode:      Hybrid (binning on host) with subgroup support.
Neigh sorting:   Unavailable or disabled.
