LAMMPS (11 Feb 2026 - Development - b75dfcc)
package gpu 1
units metal
boundary p p p
atom_style atomic
timestep 0.002
read_data data.crystal
Reading data file ...
  orthogonal box = (0 0 0) to (51.12382 53.129433 50.090909)
  reading atoms ...
  11520 atoms
change_box all triclinic
Changing box ...
  triclinic box = (0 0 0) to (51.12382 53.129433 50.090909) with tilt (0 0 0)

pair_style eam/alloy
pair_coeff * * Cu_zhou.eam.alloy Cu
Reading eam/alloy potential file Cu_zhou.eam.alloy with DATE: 2007-10-12

neighbor 2.0 bin
neigh_modify delay 10 check yes

thermo 100
thermo_style custom step temp pe press pxx pyy pzz lx ly lz

print '=== Phase 1: 0K Relaxation ==='
=== Phase 1: 0K Relaxation ===
fix relax all box/relax aniso 0.0 vmax 0.001
minimize 1.0e-8 1.0e-10 10000 100000

CITE-CITE-CITE-CITE-CITE-CITE-CITE-CITE-CITE-CITE-CITE-CITE-CITE

Your simulation uses code contributions which should be cited:

- GPU package (short-range, long-range and three-body potentials): https://doi.org/10.1016/j.cpc.2010.12.021, https://doi.org/10.1016/j.cpc.2011.10.012, https://doi.org/10.1016/j.cpc.2013.08.002, https://doi.org/10.1016/j.commatsci.2014.10.068, https://doi.org/10.1016/j.cpc.2016.10.020, https://doi.org/10.3233/APC200086

@Article{Brown11,
 author = {W. M. Brown and P. Wang and S. J. Plimpton and A. N. Tharrington},
 title = {Implementing Molecular Dynamics on Hybrid High Performance Computers---Short Range Forces},
 journal = {Comput.\ Phys.\ Commun.},
 year =    2011,
 volume =  182,
 pages =   {898--911},
 doi =     {10.1016/j.cpc.2010.12.021}
}

@Article{Brown12,
 author = {W. M. Brown and A. Kohlmeyer and S. J. Plimpton and A. N. Tharrington},
 title = {Implementing Molecular Dynamics on Hybrid High Performance Computers - Particle-Particle Particle-Mesh},
 journal = {Comput.\ Phys.\ Commun.},
 year =    2012,
 volume =  183,
 doi =     {10.1016/j.cpc.2011.10.012},
 pages =   {449--459}
}

@Article{Brown13,
 author = {W. M. Brown and Y. Masako},
 title = {Implementing Molecular Dynamics on Hybrid High Performance Computers---Three-Body Potentials},
 journal = {Comput.\ Phys.\ Commun.},
 year =    2013,
 volume =  184,
 pages =   {2785--2793},
 doi =     {10.1016/j.cpc.2013.08.002},
}

@Article{Trung15,
Loop time of 0.0189769 on 4 procs for 3 steps with 11520 atoms

Minimization stats:
  Stopping criterion = energy tolerance
  Energy initial, next-to-last, final =
  Force two-norm initial, final = 31.490067 0.013930388
  Force max component initial, final = 18.186034 0.012110362
  Final line search alpha, max atom move = 0.3194808 0.0038690281
  Iterations, force evaluations = 3 6

=== Phase 2: Equilibration at 300.0K ===

      Device Time Info (average):
CPU Neighbor:    0.0007 s.
CPU Cast/Pack:   0.0004 s.
CPU Driver_Time: 0.0001 s.
CPU Idle_Time:   0.0057 s.
Average split:   1.0000.
Max Mem / Proc:  10.56 MB.
Prefetch mode:   None.
Vector width:    32.
Lanes / atom:    4.
Pair block:      256.
Neigh block:     128.
Neigh mode:      Hybrid (binning on host) with subgroup support.
Neigh sorting:   Unavailable or disabled.

- Using acceleration for eam/alloy:
-  with 4 proc(s) per device.
-  with 1 thread(s) per proc.
-  Horizontal vector operations: ENABLED
-  Shared memory system: No
Device 0: NVIDIA RTX A4000, 48 CUs, 15/16 GB, 1.6 GHZ (Mixed Precision)

Initializing Device and compiling on process 0...Done.
Initializing Device 0 on core 0...Done.
Initializing Device 0 on core 1...Done.
Initializing Device 0 on core 2...Done.
Initializing Device 0 on core 3...Done.

Setting up Verlet run ...
  Unit style    : metal
  Current step  : 0
  Time step     : 0.002

print '=== Phase 2: Equilibration at 300.0K ==='
=== Phase 2: Equilibration at 300.0K ===
reset_timestep 0
velocity all create 300.0 63671 dist gaussian
fix eq all npt temp 300.0 300.0 0.1 tri 0.0 0.0 1.0
run 2500
Step          Temp          PotEng         Press           Pxx            Pyy            Pzz             Lx             Ly             Lz
0   300           -40778.539      3507.2051      3506.979       3499.9445      3514.6917      51.12118       53.126688      50.088325
Averages over the last 11 of 22 rows, steps 1100 to 2100:
Temp PotEng Press Pxx Pyy Pzz Lx Ly Lz
299.849 -40318.8 649.617 673.816 633.584 641.452 51.2533 53.2663 50.218
Loop time of 5.40203 on 4 procs for 2500 steps with 11520 atoms

=== Phase 3: Tension ===

      Device Time Info (average):
CPU Neighbor:    0.0001 s.
CPU Cast/Pack:   0.0993 s.
CPU Driver_Time: 0.0368 s.
Cunfix eq

print '=== Phase 3: Tension ==='
=== Phase 3: Tension ===
reset_timestep 0

# 初期z寸法の記録
variable tmp equal lz
variable lz0 equal 50.1939929453334
variable tmp delete

# z軸変形 + x,yゼロ圧力（Poisson収縮を許容）
fix deform_fix all deform 1 z erate 0.0005 remap x
fix npt_fix all npt temp 300.0 300.0 0.1 x 0.0 0.0 1.0 y 0.0 0.0 1.0 xy 0.0 0.0 1.0 xz 0.0 0.0 1.0 yz 0.0 0.0 1.0

# ひずみ・応力（sigma = -P [GPa]）
variable strain equal (lz-v_lz0)/v_lz0
variable stress equal -pzz/10000

# 欠陥解析用compute
# stress/atom: 単位は bar*Å³（実応力はボロノイ体積で割る必要あり）
compute peratom all stress/atom NULL
compute cna all cna/atom 3.087
compute csym all centro/atom fcc

thermo 100
thermo_style custom step temp v_strain v_stress pxx pyy pzz lx ly lz

dump 1 all custom 500 dump.lammpstrj id type x y z c_cna c_csym c_peratom[1] c_peratom[2] c_peratom[3] c_peratom[4] c_peratom[5] c_peratom[6]

variable should_halt equal "(v_strain > 0.05) * (v_stress < 0.1)"
fix halt_fix all halt 100 v_should_halt > 0.5 error soft

# 応力ドロップ検知（方法1: 移動平均法）
# 移動平均(window=10)と現在値の差が 2.0 GPa を超えたら停止
fix stress_avg all ave/time 100 1 100 v_stress ave window 10
variable stress_drop equal f_stress_avg-v_stress
variable should_halt_drop equal "(v_strain > 0.05) * (v_stress_drop > 2.0)"
fix halt_drop_fix all halt 100 v_should_halt_drop > 0.5 error soft

# 応力ドロップ検知（方法2: ピーク追跡法）
# ピーク応力からの落差が 2.0 GPa を超えたら停止
python peak_tracker input 1 v_stress return v_peak_stress format ff here """
def peak_tracker(stress):
    if not hasattr(peak_tracker, "peak"):
        peak_tracker.peak = 0.0
    peak_tracker.peak = max(peak_tracker.peak, stress)
    return peak_tracker.peak
"""
variable peak_stress python peak_tracker

variable drop_from_peak equal v_peak_stress-v_stress
variable should_halt_peak equal "(v_strain > 0.05) * (v_drop_from_peak > 2.0)"
fix halt_peak_fix all halt 100 v_should_halt_peak > 0.5 error soft

thermo_style custom step temp v_strain v_stress v_stress_drop v_drop_from_peak pxx pyy pzz lx ly lz

run 300000
     28900   298.34722      0.0289         4.5468879     -0.053161947    0              79.487563     -287..888257      51.609464
     38200   298.07256      0.0.02391321     122.97827      1425.956      -57659.959      50.794438      52.729725      52.076268
     42800   299.23351      0.0428         6.5019136     -0.0073849841   0.02282.307      50.739079      52.728253      52.30716
     61300   301.69485      0.0613         8.6618174     -0.020088259    0.032850493    517.12887     -  52.560024      53.235749
     91400   301.23293      0.0914         10.848505      0.058175962    0-108767.86      50.268485      52.228442      54.746588
     96800   300.68503      0.0968         10.995932      0.19123038     0.24551969     1023.7641      568.21772     -Loop time of 239.216 on 4 procs for 97400 steps with 11520 atoms

      Device Time Info (average):
CPU Neighbor:    0.0285 s.
CPU Cast/Pack:   3.8688 s.
CPU Driver_Time: 1.1651 s.
CPU Idle_Time:   58.3488 s.
Average split:   1.0000.
Max Mem / Proc:  10.11 MB.
Prefetch mode:   None.
Vector width:    32.
Lanes / atom:    4.
Pair block:      256.
Neigh block:     128.
Neigh mode:      Hybrid (binning on host) with subgroup support.
Neigh sorting:   Unavailable or disabled.

 160.5 | 21.60
