LAMMPS (10 Dec 2025)
units metal
boundary p p s
atom_style atomic
timestep 0.002
read_data data.interface
Reading data file ...
  orthogonal box = (0 0 0) to (31.066736 30.355302 63.738506)
  reading atoms ...
  4236 atoms

pair_style eam/alloy
pair_coeff * * /mnt/c/Users/iwash/Documents/Repositories/Lammps/potentials/AlCu.eam.alloy Al Cu
Reading eam/alloy potential file /mnt/c/Users/iwash/Documents/Repositories/Lammps/potentials/AlCu.eam.alloy with DATE: 2008-10-01

neighbor 2.0 bin
neigh_modify delay 10 check yes

thermo 100
thermo_style custom step temp pe press pxx pyy lx ly lz

print '=== Phase 0: Shake (High-T limit) ==='
=== Phase 0: Shake (High-T limit) ===
velocity all create 1000.0 8450 dist gaussian
fix shake all nve/limit 0.1
run 1000
Step          Temp          PotEng         Press           Pxx            Pyy             Lx             Ly             Lz
0   1000          -14390.535      19975.076      16211.761      26338.139      31.066736      30.355302      60.044738
Averages over the last 6 of 11 rows, steps 500 to 1000:
Temp PotEng Press Pxx Pyy Lx Ly Lz
574.639 -14157.1 9958.63 17778.8 20669.8 31.0667 30.3553 63.0377
Loop time of 2.72118 on 4 procs for 1000 steps with 4236 atoms

=== Phase 1: 0K Relaxation ===
Setting up cg style minimization ...
  Unit style    : metal
  Current step  : 1000
 (src/min.cpp:222)
velocity all set 0 0 0

# x,y方向の箱寸法 + 原子位置を同時最適化（z方向はshrink-wrap）
print '=== Phase 1: 0K Relaxation ==='
=== Phase 1: 0K Relaxation ===
fix relax all box/relax x 0.0 y 0.0 vmax 0.001
minimize 1.0e-8 1.0e-10 10000 100000
 (src/min.cpp:222)
Step          Temp          PotEng         Press           Pxx            Pyy             Lx             Ly             Lz
1000   0             -14170.172      14503.994      20568.909      22447.145      31.066736      30.355302      61.945278
Loop time of 1.606 on 4 procs for 450 steps with 4236 atoms

Minimization stats:
  Stopping criPair    | 1.5463     | 1.5469     | 1.5475     |   0.0 | 96.32

=== Phase 2: Annealing at 600.0K for 10.0ps ===
Setting up Verlet run ...
  Unit style    : metal
  Current step  : 0
  Time step     : 0.002
Step          Temp          PotEng         Press           Pxx            Pyy             Lx             Ly             Lz
0   600           -14355.215      1.4283556      6543.9639      6336.0549      31.037844      30.409436      61.798888
       100   460.68471     -14222.unfix relax

# 界面近傍の原子配置を緩和（ミスフィット軽減）
print '=== Phase 2: Annealing at 600.0K for 10.0ps ==='
=== Phase 2: Annealing at 600.0K for 10.0ps ===
reset_timestep 0
velocity all create 600.0 8450 dist gaussian
fix ann all npt temp 600.0 600.0 0.1 x 0.0 0.0 1.0 y 0.0 0.0 1.0
run 5000
Step          Temp          PotEng         Press           Pxx            Pyy             Lx             Ly             Lz
0   600           -14355.215      1.4283556      6543.9639      6336.0549      31.037844      30.409436      61.798888
Averages over the last 11 of 21 rows, steps 1000 to 2000:
Temp PotEng Press Pxx Pyy Lx Ly Lz
600.933 -14137.7 48.9735 249.885 -62.2641 31.3174 31.0424 61.9233
      4800   601.68322     -14138.769      260.03516   Pair    | 8.7796     | 10.635     | 12.477     |  54.4 | 78.30

=== Phase 2b: Cooling 600.0K -> 300.0K ===
Setting up Verlet run ...
  Unit style    : metal
  Current step  : 5000
  Time step     : 0.002
Step          Temp          PotEng         Press           Pxx            Pyy             Lx             Ly             Lz
5000   608.44804     -14128.699     -1347.874       587.21898      798.78303      31.300661      30.952406      62.193608
      5200   587.09157     -14146.635     -54.504392     -177.69847     -273.53786  unfix ann

print '=== Phase 2b: Cooling 600.0K -> 300.0K ==='
=== Phase 2b: Cooling 600.0K -> 300.0K ===
fix cool all npt temp 600.0 300.0 0.1 x 0.0 0.0 1.0 y 0.0 0.0 1.0
run 5000
Step          Temp          PotEng         Press           Pxx            Pyy             Lx             Ly             Lz
5000   608.44804     -14128.699     -1347.874       587.21898      798.78303      31.300661      30.952406      62.193608
Averages over the last 11 of 22 rows, steps 6100 to 7100:
Temp PotEng Press Pxx Pyy Lx Ly Lz
504.595 -14202.1 186.125 62.0664 205.081 31.2812 30.9335 61.3041
      9800   323.7325      -14324.59      -515.41873      1513.317       694.3Neigh   | 0.10762    | 0.18203    | 0.2673     |  16.4 |  1.38

=== Phase 3: Define Grips ===
504 atoms in group bottom
293 atoms in group top
3439 atoms in group mobile
Bottom grip: 504 atoms
Top grip:    293 atoms
Mobile:      3439 atoms
=== Phase 4: Equilibration with Grips ===
Setting up Verlet run ...
  Unit style    : metal
  Current step  : 0
  Time step     : 0.002
Step          Temp          PotEng         Press           Pxx            Pyy             Lx             Ly             Lz
0   245.97202     -14327.416     -1568.6852     -2270.3724     -691.31888      31.173244      30.740856      60.729852
       100   270.06385     -14315.94      -1188.8329     -1096.2796     -2407.6811  unfix cool

# 焼きなまし後の座標を基準にグリップ領域を定義
print '=== Phase 3: Define Grips ==='
=== Phase 3: Define Grips ===
variable zmin equal bound(all,zmin)
variable zmax equal bound(all,zmax)
variable grip_thick equal 5.0
variable zlo_grip equal 1.48590136914116+5
variable zhi_grip equal 62.2030058373199-5

region rgn_bot block INF INF INF INF INF 6.48590136914116
region rgn_top block INF INF INF INF 57.2030058373199 INF
group bottom region rgn_bot
504 atoms in group bottom
group top region rgn_top
293 atoms in group top
group mobile subtract all bottom top
3439 atoms in group mobile

print 'Bottom grip: $(count(bottom)) atoms'
Bottom grip: 504 atoms
print 'Top grip:    $(count(top)) atoms'
Top grip:    293 atoms
print 'Mobile:      $(count(mobile)) atoms'
Mobile:      3439 atoms

print '=== Phase 4: Equilibration with Grips ==='
=== Phase 4: Equilibration with Grips ===
reset_timestep 0
velocity bottom set 0.0 0.0 0.0
velocity top set 0.0 0.0 0.0
# グリップ: nve（時間積分）+ setforce 0（力ゼロ）→ 等速運動
fix nve_bot bottom nve
fix nve_top top nve
fix freeze_bot bottom setforce 0.0 0.0 0.0
fix freeze_top top setforce 0.0 0.0 0.0
fix eq mobile npt temp 300.0 300.0 0.1 x 0.0 0.0 1.0 y 0.0 0.0 1.0
run 5000
Step          Temp          PotEng         Press           Pxx            Pyy             Lx             Ly             Lz
0   245.97202     -14327.416     -1568.6852     -2270.3724     -691.31888      31.173244      30.740856      60.729852
Loop time of 12.4492 on 4 procs for 5000 steps with 4236 atoms

=== Phase 5: Tensile Test ===
Initial grip distance L0 = 56.305427907983 Ang
Pull velocity = 0.112610855815966 Ang/ps (erate=0.002/ps)
Setting up Verlet run ...
  Unit style    : metal
  Current step  : 0
  Time step     : 0.002
Step          Temp         v_strain     v_stress_zz        Pxx            Pyy             Lx             Ly           v_Lmat
0   308.88659     -1.2619436e-16  0.022880412    697.77363     -1455.4587      31.101753      30.875475      56.305428
Averages over the last 6 of 11 rows, steps 500 to 1000:
Temp v_strain v_stress_zz Pxx Pyy Lx Ly v_Lmat
244.939 0.003 0.826598 -4136.24 -7195.19 31.1018 30.8755 56.4743
      1100   245.16804      0.0044         0.84075581    -4169.2681     -7443.3432      31.101753      30.875475      unfix eq

print '=== Phase 5: Tensile Test ==='
=== Phase 5: Tensile Test ===
reset_timestep 0

# グリップ重心間距離で初期材料長を定義
variable zcm_bot equal xcm(bottom,z)
variable zcm_top equal xcm(top,z)
variable tmp_L equal v_zcm_top-v_zcm_bot
variable L0 equal 56.305427907983
Initial grip distance L0 = 56.305427907983 Ang

# 引っ張り速度 = erate × L0
variable vpull equal 0.002*v_L0
velocity top set 0.0 0      1600   240.97067      0.0064         1.2771903     -6002.9199     -8290.1475      31.101753      30.875475      56.665783
     26000   238.7926.044      31.101753      30.875475      61.553094
     47700   246.97578      0.1908         0.830.875475      66.440405
     57000   248.22967      0.228          1.0117823     -   68.534967
Loop time of 206.879 on 4 procs for 75000 steps with 4236 atoms

Loop time of 206.879 on 4 procs for 75000 steps with 4236 atoms
