LAMMPS (10 Dec 2025)
units metal
boundary p p s
atom_style atomic
timestep 0.002
read_data data.interface
Reading data file ...
  orthogonal box = (0 0 0) to (31.066736 31.066736 63.73)
  reading atoms ...
  4263 atoms

pair_style eam/alloy
pair_coeff * * /mnt/c/Users/iwash/Documents/Repositories/Lammps/potentials/AlCu.eam.alloy Al Cu
Reading eam/alloy potential file /mnt/c/Users/iwash/Documents/Repositories/Lammps/potentials/AlCu.eam.alloy with DATE: 2008-10-01

neighbor 2.0 bin
neigh_modify delay 10 check yes

thermo 100
thermo_style custom step temp pe press pxx pyy lx ly lz

print '=== Phase 0: Shake (High-T limit) ==='
=== Phase 0: Shake (High-T limit) ===
velocity all create 1000.0 62549 dist gaussian
fix shake all nve/limit 0.1
run 1000
Step          Temp          PotEng         Press           Pxx            Pyy             Lx             Ly             Lz
0   1000          -14435.3        7032.0121      5955.445       6210.3206      31.066736      31.066736      59.987149
      1000   597.95928     -14213.558      3479.0318      2874.8282      3993.0663      31.066736      31.066736      63.082797 Pair    | 1.8368     | 2.1708     | 2.5291     |  21.1 | 79.07

=== Phase 1: 0K Relaxation ===
Setting up cg style minimization ...
  Unit style    : metal
  Current step  : 1000
 (src/min.cpp:222)
velocity all set 0 0 0

# x,y方向の箱寸法 + 原子位置を同時最適化（z方向はshrink-wrap）
print '=== Phase 1: 0K Relaxation ==='
=== Phase 1: 0K Relaxation ===
fix relax all box/relax x 0.0 y 0.0 vmax 0.001
minimize 1.0e-8 1.0e-10 10000 100000
 (src/min.cpp:222)
Step          Temp          PotEng         Press           Pxx            Pyy             Lx             Ly             Lz
      1000 Loop time of 1.3019 on 4 procs for 298 steps with 4263 atoms

Minimization stats:
  Stopping criterion = linesearch alpha is zero
  Energy initial, next-to-last, final =
  Force two-norm initial, final = 135.60352 31.817905
  Force max component initial, final = 103.87687 17.663296
  Final line search alpha, max atom move = 6.7489833e-12 1.1920929e-10
  Iterations, force evaluations = 298 366

=== Phase 2: Annealing at 600.0K for 10.0ps ===
Setting up Verlet run ...
  Unit style    : metal
  Current step  : 0
  Time step     : 0.002
Step          Temp          PotEng         Press           Pxx            Pyy             Lx             Ly             Lz
0   600           -14413.178      4669.1884      6285.9536      6307.2722      30.712398      30.740512      62.86641
       100   444.74955     -14270.4unfix relax

# 界面近傍の原子配置を緩和（ミスフィット軽減）
print '=== Phase 2: Annealing at 600.0K for 10.0ps ==='
=== Phase 2: Annealing at 600.0K for 10.0ps ===
reset_timestep 0
velocity all create 600.0 62549 dist gaussian
fix ann all npt temp 600.0 600.0 0.1 x 0.0 0.0 1.0 y 0.0 0.0 1.0
run 5000
Step          Temp          PotEng         Press           Pxx            Pyy             Lx             Ly             Lz
0   600           -14413.178      4669.1884      6285.9536      6307.2722      30.712398      30.740512      62.86641
Averages over the last 11 of 21 rows, steps 1000 to 2000:
Temp PotEng Press Pxx Pyy Lx Ly Lz
598.451 -14178.3 169.607 319.724 35.9975 31.0755 31.0917 64.0648
      4800   608.96884     -14183.162     -2265.8379 Pair    | 8.2213     | 10.204     | 12.01      |  55.6 | 78.90

=== Phase 2b: Cooling 600.0K -> 300.0K ===
Setting up Verlet run ...
  Unit style    : metal
  Current step  : 5000
  Time step     : 0.002
Step          Temp          PotEng         Press           Pxx            Pyy             Lx             Ly             Lz
5000   588.35262     -14179.761     -1007.6896     -1810.0688     -588.22747      31.111161      31.002798      64.604726
      5200   598.01753     -14182.466     -403.18531     -251.83898     -416.45009    unfix ann

print '=== Phase 2b: Cooling 600.0K -> 300.0K ==='
=== Phase 2b: Cooling 600.0K -> 300.0K ===
fix cool all npt temp 600.0 300.0 0.1 x 0.0 0.0 1.0 y 0.0 0.0 1.0
run 5000
Step          Temp          PotEng         Press           Pxx            Pyy             Lx             Ly             Lz
5000   588.35262     -14179.761     -1007.6896     -1810.0688     -588.22747      31.111161      31.002798      64.604726
Averages over the last 11 of 22 rows, steps 6100 to 7100:
Temp PotEng Press Pxx Pyy Lx Ly Lz
507.095 -14247.2 216.725 -79.0542 44.5409 31.1001 31.0961 63.8696
      9Comm    | 0.39122    | 2.2386     | 4.0585     | 116.9 | 17.12

=== Phase 3: Define Grips ===
432 atoms in group bottom
242 atoms in group top
3589 atoms in group mobile
Bottom grip: 432 atoms
Top grip:    242 atoms
Mobile:      3589 atoms
=== Phase 4: Equilibration with Grips ===
Setting up Verlet run ...
  Unit style    : metal
  Current step  : 0
  Time step     : 0.002
Step          Temp          PotEng         Press           Pxx            Pyy             Lx             Ly             Lz
0   258.81354     -14380.866     -11.451221     -413.08558      371.42791      31.028555      30.989935      62.642555
       100   275.46247     -14368.047      1.7051787      173.10814     -631.95187    unfix cool

# 焼きなまし後の座標を基準にグリップ領域を定義
print '=== Phase 3: Define Grips ==='
=== Phase 3: Define Grips ===
variable zmin equal bound(all,zmin)
variable zmax equal bound(all,zmax)
variable grip_thick equal 5.0
variable zlo_grip equal 1.6918811844289+5
variable zhi_grip equal 64.3216906466903-5

region rgn_bot block INF INF INF INF INF 6.6918811844289
region rgn_top block INF INF INF INF 59.3216906466903 INF
group bottom region rgn_bot
432 atoms in group bottom
group top region rgn_top
242 atoms in group top
group mobile subtract all bottom top
3589 atoms in group mobile

print 'Bottom grip: $(count(bottom)) atoms'
Bottom grip: 432 atoms
print 'Top grip:    $(count(top)) atoms'
Top grip:    242 atoms
print 'Mobile:      $(count(mobile)) atoms'
Mobile:      3589 atoms

print '=== Phase 4: Equilibration with Grips ==='
=== Phase 4: Equilibration with Grips ===
reset_timestep 0
velocity bottom set 0.0 0.0 0.0
velocity top set 0.0 0.0 0.0
# グリップ: nve（時間積分）+ setforce 0（力ゼロ）→ 等速運動
fix nve_bot bottom nve
fix nve_top top nve
fix freeze_bot bottom setforce 0.0 0.0 0.0
fix freeze_top top setforce 0.0 0.0 0.0
fix eq mobile npt temp 300.0 300.0 0.1 x 0.0 0.0 1.0 y 0.0 0.0 1.0
run 5000
Step          Temp          PotEng         Press           Pxx            Pyy             Lx             Ly             Lz
0   258.81354     -14380.866     -11.451221     -413.08558      371.42791      31.028555      30.989935      62.642555
Loop time of 13.35 on 4 procs for 5000 steps with 4263 atoms

=== Phase 5: Tensile Test ===
Initial grip distance L0 = 57.8348942294677 Ang
Pull velocity = 0.115669788458935 Ang/ps (erate=0.002/ps)
Setting up Verlet run ...
  Unit style    : metal
  Current step  : 0
  Time step     : 0.002
Step          Temp         v_strain     v_stress_zz        Pxx            Pyy             Lx             Ly           v_Lmat
0   297.03907     -1.3514281e-15  0.040828894   -497.82904     -1144.6042      31.048741      31.081119      57.834894
Averages over the last 6 of 11 rows, steps 500 to 1000:
Temp v_strain v_stress_zz Pxx Pyy Lx Ly v_Lmat
251.789 0.003 0.651784 -5670.93 -6389.02 31.0487 31.0811 58.0084
      1100   253.58287      0.0044         0.79121282    -6122.8612     -7548.7505      31.048741      31.081119   unfix eq

print '=== Phase 5: Tensile Test ==='
=== Phase 5: Tensile Test ===
reset_timestep 0

# グリップ重心間距離で初期材料長を定義
variable zcm_bot equal xcm(bottom,z)
variable zcm_top equal xcm(top,z)
variable tmp_L equal v_zcm_top-v_zcm_bot
variable L0 equal 57.8348942294677
Initial grip distance L0 = 57.8348942294677 Ang

# 引っ張り速度 = erate × L0
variable vpull equal 0.002*v_L0
velocity top set 0.0 0.      1600   252.02248      0.0064         0.927862      -7544.737      -8254.4646      31.048741      31.081119      58.205038
     26000   25-15750.138      31.048741      31.081119      63.225106
     29100   255.9737.574      31.048741      31.081119      63.942259
     38400   255.62383      0.131.048741      31.081119      66.093717
     50800   254.84859      0.2032         0.861.081119      68.962328
     63200   249.65357      0.2528         0.28174193    -5586..830939
Fix halt condition for fix-id halt_frac met on step 69300 with value 1
Loop time of 189.68 on 4 procs for 69300 steps with 4263 atoms

Fix halt condition for fix-id halt_frac met on step 69300 with value 1
Loop time of 189.68 on 4 procs for 69300 steps with 4263 atoms
