LAMMPS (10 Dec 2025)
units metal
boundary p p s
atom_style atomic
timestep 0.002
read_data data.interface
Reading data file ...
  orthogonal box = (0 0 0) to (28.758912 30.196583 63.914761)
  reading atoms ...
  3864 atoms

pair_style eam/alloy
pair_coeff * * /mnt/c/Users/iwash/Documents/Repositories/Lammps/potentials/AlCu.eam.alloy Al Cu
Reading eam/alloy potential file /mnt/c/Users/iwash/Documents/Repositories/Lammps/potentials/AlCu.eam.alloy with DATE: 2008-10-01

neighbor 2.0 bin
neigh_modify delay 10 check yes

thermo 100
thermo_style custom step temp pe press pxx pyy lx ly lz

print '=== Phase 0: Shake (High-T limit) ==='
=== Phase 0: Shake (High-T limit) ===
velocity all create 1000.0 20767 dist gaussian
fix shake all nve/limit 0.1
run 1000
Step          Temp          PotEng         Press           Pxx            Pyy             Lx             Ly             Lz
0   1000          -13074.944      22828.203      21232.983      28462.259      28.758912      30.196583      60.164013
Averages over the last 6 of 11 rows, steps 500 to 1000:
Temp PotEng Press Pxx Pyy Lx Ly Lz
585.548 -12867.4 8842.45 8988.45 25943.9 28.7589 30.1966 63.1355
Loop time of 2.80463 on 4 procs for 1000 steps with 3864 atoms

=== Phase 1: 0K Relaxation ===
Setting up cg style minimization ...
  Unit style    : metal
  Current step  : 1000
 (src/min.cpp:222)
velocity all set 0 0 0

# x,y方向の箱寸法 + 原子位置を同時最適化（z方向はshrink-wrap）
print '=== Phase 1: 0K Relaxation ==='
=== Phase 1: 0K Relaxation ===
fix relax all box/relax x 0.0 y 0.0 vmax 0.001
minimize 1.0e-8 1.0e-10 10000 100000
 (src/min.cpp:222)
Step          Temp          PotEng         Press           Pxx            Pyy             Lx             Ly             Lz
      1000 Loop time of 0.861606 on 4 procs for 273 steps with 3864 atoms

Minimization stats:
  Stopping criterion = linesearch alpha is zero
  Energy initial, next-to-last, final =
  Force two-norm initial, final = 930.71456 41.233304
  Force max component initial, final = 879.13529 28.912504
  Final line search alpha, max atom move = 4.123105e-12 1.1920929e-10
  Iterations, force evaluations = 273 335

=== Phase 2: Annealing at 600.0K for 10.0ps ===
Setting up Verlet run ...
  Unit style    : metal
  Current step  : 0
  Time step     : 0.002
Step          Temp          PotEng         Press           Pxx            Pyy             Lx             Ly             Lz
0   600           -13046.369      462.13329      6676.6313      6498.8063      28.243692      30.601516      62.258655
       100   465.97563     -12926.8unfix relax

# 界面近傍の原子配置を緩和（ミスフィット軽減）
print '=== Phase 2: Annealing at 600.0K for 10.0ps ==='
=== Phase 2: Annealing at 600.0K for 10.0ps ===
reset_timestep 0
velocity all create 600.0 20767 dist gaussian
fix ann all npt temp 600.0 600.0 0.1 x 0.0 0.0 1.0 y 0.0 0.0 1.0
run 5000
Step          Temp          PotEng         Press           Pxx            Pyy             Lx             Ly             Lz
0   600           -13046.369      462.13329      6676.6313      6498.8063      28.243692      30.601516      62.258655
Averages over the last 11 of 21 rows, steps 1000 to 2000:
Temp PotEng Press Pxx Pyy Lx Ly Lz
597.024 -12866.1 -464.745 -21.1189 316.924 28.9848 31.0193 61.7967
      4800   600.21161     -12868.99      -2803.3882 Pair    | 8.0161     | 9.5675     | 11.174     |  48.0 | 79.88

=== Phase 2b: Cooling 600.0K -> 300.0K ===
Setting up Verlet run ...
  Unit style    : metal
  Current step  : 5000
  Time step     : 0.002
Step          Temp          PotEng         Press           Pxx            Pyy             Lx             Ly             Lz
5000   599.27773     -12870.721     -27.310456     -752.31689      1039.2577      28.998413      31.028882      61.535417
      5200   590.01662     -12882.435      577.18638     -49.678986      489.3334     unfix ann

print '=== Phase 2b: Cooling 600.0K -> 300.0K ==='
=== Phase 2b: Cooling 600.0K -> 300.0K ===
fix cool all npt temp 600.0 300.0 0.1 x 0.0 0.0 1.0 y 0.0 0.0 1.0
run 5000
Step          Temp          PotEng         Press           Pxx            Pyy             Lx             Ly             Lz
5000   599.27773     -12870.721     -27.310456     -752.31689      1039.2577      28.998413      31.028882      61.535417
Averages over the last 11 of 22 rows, steps 6100 to 7100:
Temp PotEng Press Pxx Pyy Lx Ly Lz
505.865 -12931 -50.4385 51.3511 -23.3382 28.9194 30.9751 61.0104
Loop time of 11.842 on 4 procs for 5000 steps with 3864 atoms

=== Phase 3: Define Grips ===
384 atoms in group bottom
257 atoms in group top
3223 atoms in group mobile
Bottom grip: 384 atoms
Top grip:    257 atoms
Mobile:      3223 atoms
=== Phase 4: Equilibration with Grips ===
Setting up Verlet run ...
  Unit style    : metal
  Current step  : 0
  Time step     : 0.002
Step          Temp          PotEng         Press           Pxx            Pyy             Lx             Ly             Lz
0   252.31768     -13050.917     -239.23327     -723.97882      21.820015      28.863097      30.743016      60.262314
       100   272.61716     -13039.246      23.459083      189.78304     -980.151      unfix cool

# 焼きなまし後の座標を基準にグリップ領域を定義
print '=== Phase 3: Define Grips ==='
=== Phase 3: Define Grips ===
variable zmin equal bound(all,zmin)
variable zmax equal bound(all,zmax)
variable grip_thick equal 5.0
variable zlo_grip equal 1.68829629019172+5
variable zhi_grip equal 61.9378273817166-5

region rgn_bot block INF INF INF INF INF 6.68829629019172
region rgn_top block INF INF INF INF 56.9378273817166 INF
group bottom region rgn_bot
384 atoms in group bottom
group top region rgn_top
257 atoms in group top
group mobile subtract all bottom top
3223 atoms in group mobile

print 'Bottom grip: $(count(bottom)) atoms'
Bottom grip: 384 atoms
print 'Top grip:    $(count(top)) atoms'
Top grip:    257 atoms
print 'Mobile:      $(count(mobile)) atoms'
Mobile:      3223 atoms

print '=== Phase 4: Equilibration with Grips ==='
=== Phase 4: Equilibration with Grips ===
reset_timestep 0
velocity bottom set 0.0 0.0 0.0
velocity top set 0.0 0.0 0.0
# グリップ: nve（時間積分）+ setforce 0（力ゼロ）→ 等速運動
fix nve_bot bottom nve
fix nve_top top nve
fix freeze_bot bottom setforce 0.0 0.0 0.0
fix freeze_top top setforce 0.0 0.0 0.0
fix eq mobile npt temp 300.0 300.0 0.1 x 0.0 0.0 1.0 y 0.0 0.0 1.0
run 5000
Step          Temp          PotEng         Press           Pxx            Pyy             Lx             Ly             Lz
0   252.31768     -13050.917     -239.23327     -723.97882      21.820015      28.863097      30.743016      60.262314
Loop time of 11.841 on 4 procs for 5000 steps with 3864 atoms

=== Phase 5: Tensile Test ===
Initial grip distance L0 = 56.1906400271507 Ang
Pull velocity = 0.112381280054301 Ang/ps (erate=0.002/ps)
Setting up Verlet run ...
  Unit style    : metal
  Current step  : 0
  Time step     : 0.002
Step          Temp         v_strain     v_stress_zz        Pxx            Pyy             Lx             Ly           v_Lmat
0   301.40919      5.0580861e-16 -0.12453242    -43.247125     -60.143763      28.889871      30.804078      56.19064
Averages over the last 6 of 11 rows, steps 500 to 1000:
Temp v_strain v_stress_zz Pxx Pyy Lx Ly v_Lmat
250.892 0.003 0.647041 -5254.81 -4615.54 28.8899 30.8041 56.3592
      1100   254.02217      0.0044         0.7147575     -5931.6568     -5348.8387      28.889871      30.804078      5unfix eq

print '=== Phase 5: Tensile Test ==='
=== Phase 5: Tensile Test ===
reset_timestep 0

# グリップ重心間距離で初期材料長を定義
variable zcm_bot equal xcm(bottom,z)
variable zcm_top equal xcm(top,z)
variable tmp_L equal v_zcm_top-v_zcm_bot
variable L0 equal 56.1906400271507
Initial grip distance L0 = 56.1906400271507 Ang

# 引っ張り速度 = erate × L0
variable vpull equal 0.002*v_L0
velocity top set 0.      1600   247.75277      0.0064         0.99171481    -7949.6649     -6555.7386      28.889871      30.804078      56.55026
     26000   249.957408.8719      28.889871      30.804078      61.427608
Fix halt condition for fix-id halt_frac met on step 39900 with value 1
Loop time of 96.8082 on 4 procs for 39900 steps with 3864 atoms

Fix halt condition for fix-id halt_frac met on step 39900 with value 1
Loop time of 96.8082 on 4 procs for 39900 steps with 3864 atoms
