LAMMPS (10 Dec 2025)
units metal
boundary p p s
atom_style atomic
timestep 0.002
read_data data.interface
Reading data file ...
  orthogonal box = (0 0 0) to (28.758912 31.066736 64.205538)
  reading atoms ...
  3954 atoms

pair_style eam/alloy
pair_coeff * * /mnt/c/Users/iwash/Documents/Repositories/Lammps/potentials/AlCu.eam.alloy Al Cu
Reading eam/alloy potential file /mnt/c/Users/iwash/Documents/Repositories/Lammps/potentials/AlCu.eam.alloy with DATE: 2008-10-01

neighbor 2.0 bin
neigh_modify delay 10 check yes

thermo 100
thermo_style custom step temp pe press pxx pyy lx ly lz

print '=== Phase 0: Shake (High-T limit) ==='
=== Phase 0: Shake (High-T limit) ===
velocity all create 1000.0 27153 dist gaussian
fix shake all nve/limit 0.1
run 1000
Step          Temp          PotEng         Press           Pxx            Pyy             Lx             Ly             Lz
0   1000          -13369.419      11716.663      8964.9492      10386.224      28.758912      31.066736      60.462699
Averages over the last 6 of 11 rows, steps 500 to 1000:
Temp PotEng Press Pxx Pyy Lx Ly Lz
578.452 -13153.8 -3345.16 -3764.26 3458.25 28.7589 31.0667 63.8138
Loop time of 2.33805 on 4 procs for 1000 steps with 3954 atoNeigh   | 0.026924   | 0.046335   | 0.064304   |   7.5 |  1.98

=== Phase 1: 0K Relaxation ===
Setting up cg style minimization ...
  Unit style    : metal
  Current step  : 1000
 (src/min.cpp:222)
velocity all set 0 0 0

# x,y方向の箱寸法 + 原子位置を同時最適化（z方向はshrink-wrap）
print '=== Phase 1: 0K Relaxation ==='
=== Phase 1: 0K Relaxation ===
fix relax all box/relax x 0.0 y 0.0 vmax 0.001
minimize 1.0e-8 1.0e-10 10000 100000
 (src/min.cpp:222)
Step          Temp          PotEng         Press           Pxx            Pyy             Lx             Ly             Lz
1000   0             -13164.382     -1674.8737     -2382.2865      4502.409       28.758912      31.066736      63.130839
Loop time of 1.44352 on 4 procs for 478 steps with 3954 atoms

Minimization stats:
  Stopping critPair    | 1.3886     | 1.3892     | 1.3897     |   0.0 | 96.23

=== Phase 2: Annealing at 600.0K for 10.0ps ===
Setting up Verlet run ...
  Unit style    : metal
  Current step  : 0
  Time step     : 0.002
Step          Temp          PotEng         Press           Pxx            Pyy             Lx             Ly             Lz
0   600           -13372.182      2628.1192      6692.8512      6376.9425      28.186379      31.008891      62.913884
       100   445.66831     -13238.7unfix relax

# 界面近傍の原子配置を緩和（ミスフィット軽減）
print '=== Phase 2: Annealing at 600.0K for 10.0ps ==='
=== Phase 2: Annealing at 600.0K for 10.0ps ===
reset_timestep 0
velocity all create 600.0 27153 dist gaussian
fix ann all npt temp 600.0 600.0 0.1 x 0.0 0.0 1.0 y 0.0 0.0 1.0
run 5000
Step          Temp          PotEng         Press           Pxx            Pyy             Lx             Ly             Lz
0   600           -13372.182      2628.1192      6692.8512      6376.9425      28.186379      31.008891      62.913884
Averages over the last 11 of 21 rows, steps 1000 to 2000:
Temp PotEng Press Pxx Pyy Lx Ly Lz
598.813 -13158.9 -191.939 -132.956 -27.8867 28.8499 31.4073 62.9167
      4900   612.84159     -13164.252     -431.05447     -317.40581     -250.93463      28.847024      31.4802Output  | 0.0011141  | 0.0014583  | 0.0024668  |   1.5 |  0.01

=== Phase 2b: Cooling 600.0K -> 300.0K ===
Setting up Verlet run ...
  Unit style    : metal
  Current step  : 5000
  Time step     : 0.002
Step          Temp          PotEng         Press           Pxx            Pyy             Lx             Ly             Lz
5000   590.33445     -13163.796     -1706.2313     -1789.9575     -1947.8561      28.897984      31.439351      62.322861
      5200   585.9288      -13164.311      319.81964      16.183343     -532.94699    unfix ann

print '=== Phase 2b: Cooling 600.0K -> 300.0K ==='
=== Phase 2b: Cooling 600.0K -> 300.0K ===
fix cool all npt temp 600.0 300.0 0.1 x 0.0 0.0 1.0 y 0.0 0.0 1.0
run 5000
Step          Temp          PotEng         Press           Pxx            Pyy             Lx             Ly             Lz
5000   590.33445     -13163.796     -1706.2313     -1789.9575     -1947.8561      28.897984      31.439351      62.322861
Averages over the last 11 of 22 rows, steps 6100 to 7100:
Temp PotEng Press Pxx Pyy Lx Ly Lz
503.143 -13224.9 197.571 13.5722 -4.1326 28.7712 31.3903 62.0824

=== Phase 3: Define Grips ===
384 atoms in group bottom
330 atoms in group top
3240 atoms in group mobile
Bottom grip: 384 atoms
Top grip:    330 atoms
Mobile:      3240 atoms
=== Phase 4: Equilibration with Grips ===
Setting up Verlet run ...
  Unit style    : metal
  Current step  : 0
  Time step     : 0.002
Step          Temp          PotEng         Press           Pxx            Pyy             Lx             Ly             Lz
0   245.49793     -13344.654     -543.00005     -815.48032     -1950.3695      28.689502      31.287126      61.052462
       100   267.0054      -13333.208     -933.14765     -2014.8073     -1039.3683    unfix cool

# 焼きなまし後の座標を基準にグリップ領域を定義
print '=== Phase 3: Define Grips ==='
=== Phase 3: Define Grips ===
variable zmin equal bound(all,zmin)
variable zmax equal bound(all,zmax)
variable grip_thick equal 5.0
variable zlo_grip equal 1.67188691096907+5
variable zhi_grip equal 62.7115074475893-5

region rgn_bot block INF INF INF INF INF 6.67188691096907
region rgn_top block INF INF INF INF 57.7115074475893 INF
group bottom region rgn_bot
384 atoms in group bottom
group top region rgn_top
330 atoms in group top
group mobile subtract all bottom top
3240 atoms in group mobile

print 'Bottom grip: $(count(bottom)) atoms'
Bottom grip: 384 atoms
print 'Top grip:    $(count(top)) atoms'
Top grip:    330 atoms
print 'Mobile:      $(count(mobile)) atoms'
Mobile:      3240 atoms

print '=== Phase 4: Equilibration with Grips ==='
=== Phase 4: Equilibration with Grips ===
reset_timestep 0
velocity bottom set 0.0 0.0 0.0
velocity top set 0.0 0.0 0.0
# グリップ: nve（時間積分）+ setforce 0（力ゼロ）→ 等速運動
fix nve_bot bottom nve
fix nve_top top nve
fix freeze_bot bottom setforce 0.0 0.0 0.0
fix freeze_top top setforce 0.0 0.0 0.0
fix eq mobile npt temp 300.0 300.0 0.1 x 0.0 0.0 1.0 y 0.0 0.0 1.0
run 5000
Step          Temp          PotEng         Press           Pxx            Pyy             Lx             Ly             Lz
0   245.49793     -13344.654     -543.00005     -815.48032     -1950.3695      28.689502      31.287126      61.052462
Loop time of 12.6019 on 4 procs for 5000 steps with 3954 atoms

=== Phase 5: Tensile Test ===
Initial grip distance L0 = 56.377319333781 Ang
Pull velocity = 0.112754638667562 Ang/ps (erate=0.002/ps)
Setting up Verlet run ...
  Unit style    : metal
  Current step  : 0
  Time step     : 0.002
Step          Temp         v_strain     v_stress_zz        Pxx            Pyy             Lx             Ly           v_Lmat
0   297.5107      -1.0082675e-15 -0.18868798    -422.80625      1380.6133      28.776153      31.241347      56.377319
Averages over the last 6 of 11 rows, steps 500 to 1000:
Temp v_strain v_stress_zz Pxx Pyy Lx Ly v_Lmat
246.493 0.003 0.539664 -6064.48 -3977.42 28.7762 31.2413 56.5465
      1100   246.62832      0.0044         0.6292665     -6843.7194     -4410.9628      28.776153      31.241347      5unfix eq

print '=== Phase 5: Tensile Test ==='
=== Phase 5: Tensile Test ===
reset_timestep 0

# グリップ重心間距離で初期材料長を定義
variable zcm_bot equal xcm(bottom,z)
variable zcm_top equal xcm(top,z)
variable tmp_L equal v_zcm_top-v_zcm_bot
variable L0 equal 56.377319333781
Initial grip distance L0 = 56.377319333781 Ang

# 引っ張り速度 = erate × L0
variable vpull equal 0.002*v_L0
velocity top set 0.0       1600   242.87903      0.0064         0.723792      -7423.6446     -5551.0373      28.776153      31.241347      56.738134
     26000   245.052158.981      28.776153      31.241347      61.631685
Fix halt condition for fix-id halt_frac met on step 48900 with value 1
Loop time of 123.575 on 4 procs for 48900 steps with 3954 atoms

Fix halt condition for fix-id halt_frac met on step 48900 with value 1
Loop time of 123.575 on 4 procs for 48900 steps with 3954 atoms
