LAMMPS (10 Dec 2025)
units metal
boundary p p s
atom_style atomic
timestep 0.002
read_data data.interface
Reading data file ...
  orthogonal box = (0 0 0) to (60.701582 60.701582 63.73)
  reading atoms ...
  16407 atoms

pair_style eam/alloy
pair_coeff * * /mnt/c/Users/iwash/Documents/Repositories/Lammps/potentials/AlCu.eam.alloy Al Cu
Reading eam/alloy potential file /mnt/c/Users/iwash/Documents/Repositories/Lammps/potentials/AlCu.eam.alloy with DATE: 2008-10-01

neighbor 2.0 bin
neigh_modify delay 10 check yes

thermo 100
thermo_style custom step temp pe press pxx pyy lx ly lz

print '=== Phase 0: Shake (High-T limit) ==='
=== Phase 0: Shake (High-T limit) ===
velocity all create 1000.0 21578 dist gaussian
fix shake all nve/limit 0.1
run 1000
Step          Temp          PotEng         Press           Pxx            Pyy             Lx             Ly             Lz
0   1000          -55599.503      21886.642      21612.912      21810.102      60.701582      60.701582      60.025904
Averages over the last 6 of 11 rows, steps 500 to 1000:
Temp PotEng Press Pxx Pyy Lx Ly Lz
568.543 -54680.7 -4160.41 -493.11 -651.857 60.7016 60.7016 64.2037
Loop time of 10.4968 on 4 procs for 1000 steps with 16407 atoms

=== Phase 1: 0K Relaxation ===
Setting up cg style minimization ...
  Unit style    : metal
  Current step  : 1000
 (src/min.cpp:222)
velocity all set 0 0 0

# x,y方向の箱寸法 + 原子位置を同時最適化（z方向はshrink-wrap）
print '=== Phase 1: 0K Relaxation ==='
=== Phase 1: 0K Relaxation ===
fix relax all box/relax x 0.0 y 0.0 vmax 0.001
minimize 1.0e-8 1.0e-10 10000 100000

Minimization stats:
  Stopping criterion = linesearch alpha is zero
  Energy initial, next-to-last, final =
  Force two-norm initial, final = 119.37627 147.94293
  Force max component initial, final = 40.852228 93.979746
  Final line search alpha, max atom move = 3.1711431e-13 2.9802322e-11
  Iterations, force evaluations = 82 139

=== Phase 2: Annealing at 600.0K for 10.0ps ===
Setting up Verlet run ...
  Unit style    : metal
  Current step  : 0
  Time step     : 0.002
Step          Temp          PotEng         Press           Pxx            Pyy             Lx             Ly             Lz
0   600           -54912.343      2508.9392      6191.1888      6517.4533      60.568533      60.542382      63.373982
       100   559.62471     -54721.79unfix relax

# 界面近傍の原子配置を緩和（ミスフィット軽減）
print '=== Phase 2: Annealing at 600.0K for 10.0ps ==='
=== Phase 2: Annealing at 600.0K for 10.0ps ===
reset_timestep 0
velocity all create 600.0 21578 dist gaussian
fix ann all npt temp 600.0 600.0 0.1 x 0.0 0.0 1.0 y 0.0 0.0 1.0
run 5000
Step          Temp          PotEng         Press           Pxx            Pyy             Lx             Ly             Lz
0   600           -54912.343      2508.9392      6191.1888      6517.4533      60.568533      60.542382      63.373982
Averages over the last 11 of 21 rows, steps 1000 to 2000:
Temp PotEng Press Pxx Pyy Lx Ly Lz
600.1 -54667.7 500.622 -229.531 -260.493 61.9101 61.9417 61.236
      4900   597.29077     -54644.033     -262.Comm    | 1.912      | 9.7635     | 17.517     | 245.8 | 17.87

=== Phase 2b: Cooling 600.0K -> 300.0K ===
Setting up Verlet run ...
  Unit style    : metal
  Current step  : 5000
  Time step     : 0.002
Step          Temp          PotEng         Press           Pxx            Pyy             Lx             Ly             Lz
5000   601.00983     -54683.921     -581.42729     -308.78191      189.87083      61.542969      61.476612      62.160669
      5200   594.54721     -54702.965     -837.9605      -450.80868     -582.17064    unfix ann

print '=== Phase 2b: Cooling 600.0K -> 300.0K ==='
=== Phase 2b: Cooling 600.0K -> 300.0K ===
fix cool all npt temp 600.0 300.0 0.1 x 0.0 0.0 1.0 y 0.0 0.0 1.0
run 5000
Step          Temp          PotEng         Press           Pxx            Pyy             Lx             Ly             Lz
5000   601.00983     -54683.921     -581.42729     -308.78191      189.87083      61.542969      61.476612      62.160669
Averages over the last 11 of 22 rows, steps 6100 to 7100:
Temp PotEng Press Pxx Pyy Lx Ly Lz
506.15 -54907 -26.4825 35.5393 16.7007 61.5385 61.523 62.129

=== Phase 3: Define Grips ===
1728 atoms in group bottom
882 atoms in group top
13797 atoms in group mobile
Bottom grip: 1728 atoms
Top grip:    882 atoms
Mobile:      13797 atoms
=== Phase 4: Equilibration with Grips ===
Setting up Verlet run ...
  Unit style    : metal
  Current step  : 0
  Time step     : 0.002
Step          Temp          PotEng         Press           Pxx            Pyy             Lx             Ly             Lz
0   254.84655     -55408.754     -1359.0643     -1232.1483     -1770.4689      61.261615      61.304487      61.517125
       100   272.00332     -55375.8       -901.67709     -1384.2926     -753.16146unfix cool

# 焼きなまし後の座標を基準にグリップ領域を定義
print '=== Phase 3: Define Grips ==='
=== Phase 3: Define Grips ===
variable zmin equal bound(all,zmin)
variable zmax equal bound(all,zmax)
variable grip_thick equal 5.0
variable zlo_grip equal 1.44540945564128+5
variable zhi_grip equal 62.9497880525239-5

region rgn_bot block INF INF INF INF INF 6.44540945564128
region rgn_top block INF INF INF INF 57.9497880525239 INF
group bottom region rgn_bot
1728 atoms in group bottom
group top region rgn_top
882 atoms in group top
group mobile subtract all bottom top
13797 atoms in group mobile

print 'Bottom grip: $(count(bottom)) atoms'
Bottom grip: 1728 atoms
print 'Top grip:    $(count(top)) atoms'
Top grip:    882 atoms
print 'Mobile:      $(count(mobile)) atoms'
Mobile:      13797 atoms

print '=== Phase 4: Equilibration with Grips ==='
=== Phase 4: Equilibration with Grips ===
reset_timestep 0
velocity bottom set 0.0 0.0 0.0
velocity top set 0.0 0.0 0.0
# グリップ: nve（時間積分）+ setforce 0（力ゼロ）→ 等速運動
fix nve_bot bottom nve
fix nve_top top nve
fix freeze_bot bottom setforce 0.0 0.0 0.0
fix freeze_top top setforce 0.0 0.0 0.0
fix eq mobile npt temp 300.0 300.0 0.1 x 0.0 0.0 1.0 y 0.0 0.0 1.0
run 5000
Step          Temp          PotEng         Press           Pxx            Pyy             Lx             Ly             Lz
0   254.84655     -55408.754     -1359.0643     -1232.1483     -1770.4689      61.261615      61.304487      61.517125
Loop time of 52.6573 on 4 procs for 5000 steps with 16407 atoms

=== Phase 5: Tensile Test ===
Initial grip distance L0 = 56.6916181984677 Ang
Pull velocity = 0.113383236396935 Ang/ps (erate=0.002/ps)
Setting up Verlet run ...
  Unit style    : metal
  Current step  : 0
  Time step     : 0.002
Step          Temp         v_strain     v_stress_zz        Pxx            Pyy             Lx             Ly           v_Lmat
0   297.73148     -7.5200824e-16 -0.062786267    338.70743     -167.36741      61.30508       61.339133      56.691618
Averages over the last 6 of 11 rows, steps 500 to 1000:
Temp v_strain v_stress_zz Pxx Pyy Lx Ly v_Lmat
251.763 0.003 0.516269 -4656.07 -5046.19 61.3051 61.3391 56.8617
      1100   253.68791      0.0044         0.70458769    -5720.0937     -6283.6745      61.30508       61.339133      unfix eq

print '=== Phase 5: Tensile Test ==='
=== Phase 5: Tensile Test ===
reset_timestep 0

# グリップ重心間距離で初期材料長を定義
variable zcm_bot equal xcm(bottom,z)
variable zcm_top equal xcm(top,z)
variable tmp_L equal v_zcm_top-v_zcm_bot
variable L0 equal 56.6916181984677
Initial grip distance L0 = 56.6916181984677 Ang

# 引っ張り速度 = erate × L0
variable vpull equal 0.002*v_L0
velocity top set 0.0      1600   252.8197       0.0064         0.84842191    -7138.1599     -7577.8355      61.30508       61.339133      57.054445
      4200   254.2198       0.0168         1.7435024     -13353.816     -14172.457      61.30508       61.339133      57.6.84842191    -7138.1599     -7577.8355      61.30508       61.339133      57.054445
     26000   248.0-13765.036      61.30508       61.339133      61.975277
     29100   252.1587528.131      61.30508       61.339133      62.678253
     38400   252.4005       0.153661.30508       61.339133      64.787181
     50800   252.51521      0.2032         0.389001.339133      67.599086
     57000   253.01664      0.228          0.21922207    -      69.005038
     63200   251.53446      0.2528         0.20927551    -3014.231.41099
Fix halt condition for fix-id halt_frac met on step 63800 with value 1
Loop time of 639.3 on 4 procs for 63800 steps with 16407 atoms

Fix halt condition for fix-id halt_frac met on step 63800 with value 1
Loop time of 639.3 on 4 procs for 63800 steps with 16407 atoms
