LAMMPS (10 Dec 2025)
units metal
boundary p p s
atom_style atomic
timestep 0.002
read_data data.interface
Reading data file ...
  orthogonal box = (0 0 0) to (31.066736 30.196583 63.439223)
  reading atoms ...
  4164 atoms

pair_style eam/alloy
pair_coeff * * /mnt/c/Users/iwash/Documents/Repositories/Lammps/potentials/AlCu.eam.alloy Al Cu
Reading eam/alloy potential file /mnt/c/Users/iwash/Documents/Repositories/Lammps/potentials/AlCu.eam.alloy with DATE: 2008-10-01

neighbor 2.0 bin
neigh_modify delay 10 check yes

thermo 100
thermo_style custom step temp pe press pxx pyy lx ly lz

print '=== Phase 0: Shake (High-T limit) ==='
=== Phase 0: Shake (High-T limit) ===
velocity all create 1000.0 44137 dist gaussian
fix shake all nve/limit 0.1
run 1000
Step          Temp          PotEng         Press           Pxx            Pyy             Lx             Ly             Lz
0   1000          -14119.893      16955.305      9453.1716      23855.67       31.066736      30.196583      59.730892
      1000   614.86057     -13912.269      11755.784      7053.1059      21738.371      31.066736      30.196583      62.24041Pair    | 1.9284     | 2.2595     | 2.6039     |  22.0 | 80.38

=== Phase 1: 0K Relaxation ===
Setting up cg style minimization ...
  Unit style    : metal
  Current step  : 1000
 (src/min.cpp:222)
velocity all set 0 0 0

# x,y方向の箱寸法 + 原子位置を同時最適化（z方向はshrink-wrap）
print '=== Phase 1: 0K Relaxation ==='
=== Phase 1: 0K Relaxation ===
fix relax all box/relax x 0.0 y 0.0 vmax 0.001
minimize 1.0e-8 1.0e-10 10000 100000
 (src/min.cpp:222)
Step          Temp          PotEng         Press           Pxx            Pyy             Lx             Ly             Lz
1000   0             -13912.269      5708.5683      1331.2472      15911.568      31.066736      30.196583      62.181876
Minimization stats:
  Stopping criterion = linesearch alpha is zero
  Energy initial, next-to-last, final =
  Force two-norm initial, final = 584.87124 68.842026
  Force max component initial, final = 579.86717 60.756819
  Final line search alpha, max atom move = 1.9620726e-12 1.1920929e-10
  Iterations, force evaluations = 413 511

=== Phase 2: Annealing at 600.0K for 10.0ps ===
Setting up Verlet run ...
  Unit style    : metal
  Current step  : 0
  Time step     : 0.002
Step          Temp          PotEng         Press           Pxx            Pyy             Lx             Ly             Lz
0   600           -14185.374      1899.6146      6959.9571      7829.5466      30.537382      30.144405      61.652666
       100   391.3607      -14018.5unfix relax

# 界面近傍の原子配置を緩和（ミスフィット軽減）
print '=== Phase 2: Annealing at 600.0K for 10.0ps ==='
=== Phase 2: Annealing at 600.0K for 10.0ps ===
reset_timestep 0
velocity all create 600.0 44137 dist gaussian
fix ann all npt temp 600.0 600.0 0.1 x 0.0 0.0 1.0 y 0.0 0.0 1.0
run 5000
Step          Temp          PotEng         Press           Pxx            Pyy             Lx             Ly             Lz
0   600           -14185.374      1899.6146      6959.9571      7829.5466      30.537382      30.144405      61.652666
Averages over the last 11 of 21 rows, steps 1000 to 2000:
Temp PotEng Press Pxx Pyy Lx Ly Lz
600.402 -13884.7 -1090.49 -32.1278 107.198 31.0982 30.8679 61.8366
      4500   603.16705     -13886.309     -527.9318      -2246.7248     -1334.8209      31.316Loop time of 13.2238 on 4 procs for 5000 steps with 4164 atoms

=== Phase 2b: Cooling 600.0K -> 300.0K ===
Setting up Verlet run ...
  Unit style    : metal
  Current step  : 5000
  Time step     : 0.002
Step          Temp          PotEng         Press           Pxx            Pyy             Lx             Ly             Lz
5000   593.97219     -13889.069     -1786.3016     -446.39991     -439.72304      31.071692      30.810265      61.477913
      5200   583.33367     -13882.829     -2788.3923     -1699.3449     -1495.2609    unfix ann

print '=== Phase 2b: Cooling 600.0K -> 300.0K ==='
=== Phase 2b: Cooling 600.0K -> 300.0K ===
fix cool all npt temp 600.0 300.0 0.1 x 0.0 0.0 1.0 y 0.0 0.0 1.0
run 5000
Step          Temp          PotEng         Press           Pxx            Pyy             Lx             Ly             Lz
5000   593.97219     -13889.069     -1786.3016     -446.39991     -439.72304      31.071692      30.810265      61.477913
Averages over the last 11 of 22 rows, steps 6100 to 7100:
Temp PotEng Press Pxx Pyy Lx Ly Lz
504.189 -13949.6 -18.3675 459.594 265.644 31.0736 30.8028 61.2057
      9800   Pair    | 8.879      | 10.744     | 12.662     |  54.3 | 79.04

=== Phase 3: Define Grips ===
432 atoms in group bottom
286 atoms in group top
3446 atoms in group mobile
Bottom grip: 432 atoms
Top grip:    286 atoms
Mobile:      3446 atoms
=== Phase 4: Equilibration with Grips ===
Setting up Verlet run ...
  Unit style    : metal
  Current step  : 0
  Time step     : 0.002
Step          Temp          PotEng         Press           Pxx            Pyy             Lx             Ly             Lz
0   250.79175     -14072.058     -1135.4806      299.12174     -256.41053      30.883148      30.611179      60.676486
       100   272.66225     -14060.561     -1420.0707     -1018.6463     -239.47629    unfix cool

# 焼きなまし後の座標を基準にグリップ領域を定義
print '=== Phase 3: Define Grips ==='
=== Phase 3: Define Grips ===
variable zmin equal bound(all,zmin)
variable zmax equal bound(all,zmax)
variable grip_thick equal 5.0
variable zlo_grip equal 1.4281648430394+5
variable zhi_grip equal 62.0919631279496-5

region rgn_bot block INF INF INF INF INF 6.4281648430394
region rgn_top block INF INF INF INF 57.0919631279496 INF
group bottom region rgn_bot
432 atoms in group bottom
group top region rgn_top
286 atoms in group top
group mobile subtract all bottom top
3446 atoms in group mobile

print 'Bottom grip: $(count(bottom)) atoms'
Bottom grip: 432 atoms
print 'Top grip:    $(count(top)) atoms'
Top grip:    286 atoms
print 'Mobile:      $(count(mobile)) atoms'
Mobile:      3446 atoms

print '=== Phase 4: Equilibration with Grips ==='
=== Phase 4: Equilibration with Grips ===
reset_timestep 0
velocity bottom set 0.0 0.0 0.0
velocity top set 0.0 0.0 0.0
# グリップ: nve（時間積分）+ setforce 0（力ゼロ）→ 等速運動
fix nve_bot bottom nve
fix nve_top top nve
fix freeze_bot bottom setforce 0.0 0.0 0.0
fix freeze_top top setforce 0.0 0.0 0.0
fix eq mobile npt temp 300.0 300.0 0.1 x 0.0 0.0 1.0 y 0.0 0.0 1.0
run 5000
Step          Temp          PotEng         Press           Pxx            Pyy             Lx             Ly             Lz
0   250.79175     -14072.058     -1135.4806      299.12174     -256.41053      30.883148      30.611179      60.676486
Loop time of 12.8927 on 4 procs for 5000 steps with 4164 atoms

=== Phase 5: Tensile Test ===
Initial grip distance L0 = 56.6032066411724 Ang
Pull velocity = 0.113206413282345 Ang/ps (erate=0.002/ps)
Setting up Verlet run ...
  Unit style    : metal
  Current step  : 0
  Time step     : 0.002
Step          Temp         v_strain     v_stress_zz        Pxx            Pyy             Lx             Ly           v_Lmat
0   292.17918      3.7659142e-16  0.15756653     645.64518     -430.13247      30.91323       30.674104      56.603207
Averages over the last 6 of 11 rows, steps 500 to 1000:
Temp v_strain v_stress_zz Pxx Pyy Lx Ly v_Lmat
247.702 0.003 0.954371 -4785.34 -6164.89 30.9132 30.6741 56.773
      1100   253.07942      0.0044         1.1747872     -5935.0107     -7322.368       30.91323       30.674104   unfix eq

print '=== Phase 5: Tensile Test ==='
=== Phase 5: Tensile Test ===
reset_timestep 0

# グリップ重心間距離で初期材料長を定義
variable zcm_bot equal xcm(bottom,z)
variable zcm_top equal xcm(top,z)
variable tmp_L equal v_zcm_top-v_zcm_bot
variable L0 equal 56.6032066411724
Initial grip distance L0 = 56.6032066411724 Ang

# 引っ張り速度 = erate × L0
variable vpull equal 0.002*v_L0
velocity top set 0.0 0.      1600   247.09862      0.0064         1.3971844     -7279.3172     -8519.7176      30.91323       30.674104      56.965467
     26000   25-7762.4985      30.91323       30.674104      61.878626
     29100   254.246.7945      30.91323       30.674104      62.580505
     38400   245.78513      0.130.91323       30.674104      64.686145
Fix halt condition for fix-id halt_frac met on step 49400 with value 1
Loop time of 126.766 on 4 procs for 49400 steps with 4164 atoms

Fix halt condition for fix-id halt_frac met on step 49400 with value 1
Loop time of 126.766 on 4 procs for 49400 steps with 4164 atoms
