LAMMPS (10 Dec 2025)
units metal
boundary p p s
atom_style atomic
timestep 0.002
read_data data.interface
Reading data file ...
  orthogonal box = (0 0 0) to (60.701582 60.710603 123.31528)
  reading atoms ...
  32592 atoms

pair_style eam/alloy
pair_coeff * * /mnt/c/Users/iwash/Documents/Repositories/Lammps/potentials/AlCu.eam.alloy Al Cu
Reading eam/alloy potential file /mnt/c/Users/iwash/Documents/Repositories/Lammps/potentials/AlCu.eam.alloy with DATE: 2008-10-01

neighbor 2.0 bin
neigh_modify delay 10 check yes

thermo 100
thermo_style custom step temp pe press pxx pyy lx ly lz

print '=== Phase 0: Shake (High-T limit) ==='
=== Phase 0: Shake (High-T limit) ===
velocity all create 1000.0 24901 dist gaussian
fix shake all nve/limit 0.1
run 1000
Step          Temp          PotEng         Press           Pxx            Pyy             Lx             Ly             Lz
0   1000          -110918.41      31997.072      33076.937      37512.245      60.701582      60.710603      119.65015
      1000   550.8934      -109016.93      8679.4118      22411.409      24991.956      60.701582      60.710603      126.26102 Pair    | 13.245     | 16.346     | 19.338     |  66.4 | 79.21

=== Phase 1: 0K Relaxation ===
Setting up cg style minimization ...
  Unit style    : metal
  Current step  : 1000
 (src/min.cpp:222)
velocity all set 0 0 0

# x,y方向の箱寸法 + 原子位置を同時最適化（z方向はshrink-wrap）
print '=== Phase 1: 0K Relaxation ==='
=== Phase 1: 0K Relaxation ===
fix relax all box/relax x 0.0 y 0.0 vmax 0.001
minimize 1.0e-8 1.0e-10 10000 100000

Minimization stats:
  Stopping criterion = linesearch alpha is zero
  Energy initial, next-to-last, final =
  Force two-norm initial, final = 7616.0661 198.85146
  Force max component initial, final = 5753.0887 105.71054
  Final line search alpha, max atom move = 2.3334124e-13 2.4666627e-11
  Iterations, force evaluations = 39 100

=== Phase 2: Annealing at 600.0K for 10.0ps ===
Setting up Verlet run ...
  Unit style    : metal
  Current step  : 0
  Time step     : 0.002
Step          Temp          PotEng         Press           Pxx            Pyy             Lx             Ly             Lz
0   600           -109127.78     -5827.1175      6015.3341      6063.6788      61.017189      61.211705      126.1968
       100   559.70497     -108782.unfix relax

# 界面近傍の原子配置を緩和（ミスフィット軽減）
print '=== Phase 2: Annealing at 600.0K for 10.0ps ==='
=== Phase 2: Annealing at 600.0K for 10.0ps ===
reset_timestep 0
velocity all create 600.0 24901 dist gaussian
fix ann all npt temp 600.0 600.0 0.1 x 0.0 0.0 1.0 y 0.0 0.0 1.0
run 5000
Step          Temp          PotEng         Press           Pxx            Pyy             Lx             Ly             Lz
0   600           -109127.78     -5827.1175      6015.3341      6063.6788      61.017189      61.211705      126.1968
Averages over the last 11 of 21 rows, steps 1000 to 2000:
Temp PotEng Press Pxx Pyy Lx Ly Lz
600.855 -109076 6189.22 -131.333 -114.567 62.1399 62.5604 119.593
Loop time of 103.303 on 4 procs fo

=== Phase 2b: Cooling 600.0K -> 300.0K ===
Setting up Verlet run ...
  Unit style    : metal
  Current step  : 5000
  Time step     : 0.002
Step          Temp          PotEng         Press           Pxx            Pyy             Lx             Ly             Lz
5000   593.4258      -108771.76     -7426.8738     -116.09921     -284.71774      61.437566      61.83037       124.87223
      5200   589.07458     -108750.86     -6683.1316      211.32033      465.96141    unfix ann

print '=== Phase 2b: Cooling 600.0K -> 300.0K ==='
=== Phase 2b: Cooling 600.0K -> 300.0K ===
fix cool all npt temp 600.0 300.0 0.1 x 0.0 0.0 1.0 y 0.0 0.0 1.0
run 5000
Step          Temp          PotEng         Press           Pxx            Pyy             Lx             Ly             Lz
5000   593.4258      -108771.76     -7426.8738     -116.09921     -284.71774      61.437566      61.83037       124.87223
Averages over the last 11 of 22 rows, steps 6100 to 7100:
Temp PotEng Press Pxx Pyy Lx Ly Lz
506.321 -109522 4727.65 -33.0825 -31.1494 61.8935 62.3009 119.612
      9500   330.47645     -110342.58     -1558.6499  Loop time of 100.314 on 4 procs for 5000 steps with 32592 atoms

=== Phase 3: Define Grips ===
2011 atoms in group bottom
1075 atoms in group top
29506 atoms in group mobile
Bottom grip: 2011 atoms
Top grip:    1075 atoms
Mobile:      29506 atoms
=== Phase 4: Equilibration with Grips ===
Setting up Verlet run ...
  Unit style    : metal
  Current step  : 0
  Time step     : 0.002
Step          Temp          PotEng         Press           Pxx            Pyy             Lx             Ly             Lz
0   273.44082     -110370.37     -4944.1581     -155.05271     -149.6042       61.147579      61.489303      122.08511
       100   283.94739     -110323.31     -4956.4902     -359.88257     -464.111unfix cool

# 焼きなまし後の座標を基準にグリップ領域を定義
print '=== Phase 3: Define Grips ==='
=== Phase 3: Define Grips ===
variable zmin equal bound(all,zmin)
variable zmax equal bound(all,zmax)
variable grip_thick equal 5.0
variable zlo_grip equal 0.729930004656077+5
variable zhi_grip equal 122.790378134518-5

region rgn_bot block INF INF INF INF INF 5.72993000465608
region rgn_top block INF INF INF INF 117.790378134518 INF
group bottom region rgn_bot
2011 atoms in group bottom
group top region rgn_top
1075 atoms in group top
group mobile subtract all bottom top
29506 atoms in group mobile

print 'Bottom grip: $(count(bottom)) atoms'
Bottom grip: 2011 atoms
print 'Top grip:    $(count(top)) atoms'
Top grip:    1075 atoms
print 'Mobile:      $(count(mobile)) atoms'
Mobile:      29506 atoms

print '=== Phase 4: Equilibration with Grips ==='
=== Phase 4: Equilibration with Grips ===
reset_timestep 0
velocity bottom set 0.0 0.0 0.0
velocity top set 0.0 0.0 0.0
# グリップ: nve（時間積分）+ setforce 0（力ゼロ）→ 等速運動
fix nve_bot bottom nve
fix nve_top top nve
fix freeze_bot bottom setforce 0.0 0.0 0.0
fix freeze_top top setforce 0.0 0.0 0.0
fix eq mobile npt temp 300.0 300.0 0.1 x 0.0 0.0 1.0 y 0.0 0.0 1.0
run 5000
Step          Temp          PotEng         Press           Pxx            Pyy             Lx             Ly             Lz
0   273.44082     -110370.37     -4944.1581     -155.05271     -149.6042       61.147579      61.489303      122.08511
Loop time of 98.7068 on 4 procs for 5000 steps with 32592 atoms

=== Phase 5: Tensile Test ===
Initial grip distance L0 = 117.538397758101 Ang
Pull velocity = 0.235076795516202 Ang/ps (erate=0.002/ps)
Setting up Verlet run ...
  Unit style    : metal
  Current step  : 0
  Time step     : 0.002
Step          Temp         v_strain     v_stress_zz        Pxx            Pyy             Lx             Ly           v_Lmat
0   300.63584     -1.2090393e-15  1.4990313      474.76873     -63.747519      61.171899      61.529035      117.5384
Averages over the last 6 of 11 rows, steps 500 to 1000:
Temp v_strain v_stress_zz Pxx Pyy Lx Ly v_Lmat
271.891 0.003 2.11119 -3321.01 -3462.64 61.1719 61.529 117.891
      1100   273.41203      0.0044         2.2560041     -3759.0844     -4016.3415      61.171899      61.529035      11unfix eq

print '=== Phase 5: Tensile Test ==='
=== Phase 5: Tensile Test ===
reset_timestep 0

# グリップ重心間距離で初期材料長を定義
variable zcm_bot equal xcm(bottom,z)
variable zcm_top equal xcm(top,z)
variable tmp_L equal v_zcm_top-v_zcm_bot
variable L0 equal 117.538397758101
Initial grip distance L0 = 117.538397758101 Ang

# 引っ張り速度 = erate × L0
variable vpull equal 0.002*v_L0
velocity top set 0      1600   271.71302      0.0064         2.3915436     -4497.4405     -4908.1604      61.171899      61.529035      118.29064
      4200   272.39176      0.0168         3.5032624     -9328.9448     -9290.0856      61.171899      61.529035      119.51.3915436     -4497.4405     -4908.1604      61.171899      61.529035      118.29064
Loop time of 335.377 on 4 procs for 17000 steps with 32592 atoms

Fix halt condition for fix-id halt_frac met on step 17000 with value 1
Loop time of 335.377 on 4 procs for 17000 steps with 32592 atoms
