LAMMPS (10 Dec 2025)
units metal
boundary p p s
atom_style atomic
timestep 0.002
read_data data.interface
Reading data file ...
  orthogonal box = (0 0 0) to (60.701582 60.701582 124.79)
  reading atoms ...
  32814 atoms

pair_style eam/alloy
pair_coeff * * /mnt/c/Users/iwash/Documents/Repositories/Lammps/potentials/AlCu.eam.alloy Al Cu
Reading eam/alloy potential file /mnt/c/Users/iwash/Documents/Repositories/Lammps/potentials/AlCu.eam.alloy with DATE: 2008-10-01

neighbor 2.0 bin
neigh_modify delay 10 check yes

thermo 100
thermo_style custom step temp pe press pxx pyy lx ly lz

print '=== Phase 0: Shake (High-T limit) ==='
=== Phase 0: Shake (High-T limit) ===
velocity all create 1000.0 26208 dist gaussian
fix shake all nve/limit 0.1
run 1000
Step          Temp          PotEng         Press           Pxx            Pyy             Lx             Ly             Lz
0   1000          -111647.66      26138.052      26364.022      26342.887      60.701582      60.701582      121.09068
      1000   552.75885     -109741.66     -9907.2615     -4797.4127     -5044.6676      60.701582      60.701582      128.93294 Pair    | 13.019     | 15.772     | 18.182     |  59.6 | 81.93

=== Phase 1: 0K Relaxation ===
Setting up cg style minimization ...
  Unit style    : metal
  Current step  : 1000
 (src/min.cpp:222)
velocity all set 0 0 0

# x,y方向の箱寸法 + 原子位置を同時最適化（z方向はshrink-wrap）
print '=== Phase 1: 0K Relaxation ==='
=== Phase 1: 0K Relaxation ===
fix relax all box/relax x 0.0 y 0.0 vmax 0.001
minimize 1.0e-8 1.0e-10 10000 100000
 (src/min.cpp:222)
Step    Loop time of 4.11228 on 4 procs for 118 steps with 32814 atoms

Minimization stats:
  Stopping criterion = linesearch alpha is zero
  Energy initial, next-to-last, final =
  Force two-norm initial, final = 4155.6737 145.42141
  Force max component initial, final = 2972.7945 85.427147
  Final line search alpha, max atom move = 5.6978184e-13 4.8674837e-11
  Iterations, force evaluations = 118 195

=== Phase 2: Annealing at 600.0K for 10.0ps ===
Setting up Verlet run ...
  Unit style    : metal
  Current step  : 0
  Time step     : 0.002
Step          Temp          PotEng         Press           Pxx            Pyy             Lx             Ly             Lz
0   600           -110714.05     -1283.4258      6101.4109      6160.1879      60.056612      60.037367      128.86718
       100   492.28859     -109985.unfix relax

# 界面近傍の原子配置を緩和（ミスフィット軽減）
print '=== Phase 2: Annealing at 600.0K for 10.0ps ==='
=== Phase 2: Annealing at 600.0K for 10.0ps ===
reset_timestep 0
velocity all create 600.0 26208 dist gaussian
fix ann all npt temp 600.0 600.0 0.1 x 0.0 0.0 1.0 y 0.0 0.0 1.0
run 5000
Step          Temp          PotEng         Press           Pxx            Pyy             Lx             Ly             Lz
0   600           -110714.05     -1283.4258      6101.4109      6160.1879      60.056612      60.037367      128.86718
Averages over the last 11 of 21 rows, steps 1000 to 2000:
Temp PotEng Press Pxx Pyy Lx Ly Lz
598.347 -109786 2285.63 463.811 477.249 62.3669 62.368 120.835
      5000   600.62405     -109592.85     -2412.6534     -31.214459      499.17409      61.119262      Other   |            | 0.2109     |            |       |  0.21

=== Phase 2b: Cooling 600.0K -> 300.0K ===
Setting up Verlet run ...
  Unit style    : metal
  Current step  : 5000
  Time step     : 0.002
Step          Temp          PotEng         Press           Pxx            Pyy             Lx             Ly             Lz
5000   600.62405     -109592.85     -2412.303      -31.209926      499.1016       61.119262      61.093134      128.2507
      5200   594.85931     -109642.06     -2139.8291      89.469759      263.79322    unfix ann

print '=== Phase 2b: Cooling 600.0K -> 300.0K ==='
=== Phase 2b: Cooling 600.0K -> 300.0K ===
fix cool all npt temp 600.0 300.0 0.1 x 0.0 0.0 1.0 y 0.0 0.0 1.0
run 5000
Step          Temp          PotEng         Press           Pxx            Pyy             Lx             Ly             Lz
5000   600.62405     -109592.85     -2412.303      -31.209926      499.1016       61.119262      61.093134      128.2507
Averages over the last 11 of 22 rows, steps 6100 to 7100:
Temp PotEng Press Pxx Pyy Lx Ly Lz
507.479 -110222 1042.95 42.4469 -8.13141 61.911 61.9046 122.923
Loop time of 96.8108 on 4 procs for 5000 steps with 32814 atoms

=== Phase 3: Define Grips ===
1728 atoms in group bottom
882 atoms in group top
30204 atoms in group mobile
Bottom grip: 1728 atoms
Top grip:    882 atoms
Mobile:      30204 atoms
=== Phase 4: Equilibration with Grips ===
Setting up Verlet run ...
  Unit style    : metal
  Current step  : 0
  Time step     : 0.002
Step          Temp          PotEng         Press           Pxx            Pyy             Lx             Ly             Lz
0   280.94813     -111188.09     -2131.5686     -1063.076      -730.64846      61.096506      61.074505      124.53665
       100   288.20898     -111142.86     -1978.4961     -754.87966     -704.87982unfix cool

# 焼きなまし後の座標を基準にグリップ領域を定義
print '=== Phase 3: Define Grips ==='
=== Phase 3: Define Grips ===
variable zmin equal bound(all,zmin)
variable zmax equal bound(all,zmax)
variable grip_thick equal 5.0
variable zlo_grip equal 0.76789869078716+5
variable zhi_grip equal 125.27959393562-5

region rgn_bot block INF INF INF INF INF 5.76789869078716
region rgn_top block INF INF INF INF 120.27959393562 INF
group bottom region rgn_bot
1728 atoms in group bottom
group top region rgn_top
882 atoms in group top
group mobile subtract all bottom top
30204 atoms in group mobile

print 'Bottom grip: $(count(bottom)) atoms'
Bottom grip: 1728 atoms
print 'Top grip:    $(count(top)) atoms'
Top grip:    882 atoms
print 'Mobile:      $(count(mobile)) atoms'
Mobile:      30204 atoms

print '=== Phase 4: Equilibration with Grips ==='
=== Phase 4: Equilibration with Grips ===
reset_timestep 0
velocity bottom set 0.0 0.0 0.0
velocity top set 0.0 0.0 0.0
# グリップ: nve（時間積分）+ setforce 0（力ゼロ）→ 等速運動
fix nve_bot bottom nve
fix nve_top top nve
fix freeze_bot bottom setforce 0.0 0.0 0.0
fix freeze_top top setforce 0.0 0.0 0.0
fix eq mobile npt temp 300.0 300.0 0.1 x 0.0 0.0 1.0 y 0.0 0.0 1.0
run 5000
Step          Temp          PotEng         Press           Pxx            Pyy             Lx             Ly             Lz
0   280.94813     -111188.09     -2131.5686     -1063.076      -730.64846      61.096506      61.074505      124.53665
Loop time of 97.7611 on 4 procs for 5000 steps with 32814 atoms

=== Phase 5: Tensile Test ===
Initial grip distance L0 = 119.101062803447 Ang
Pull velocity = 0.238202125606894 Ang/ps (erate=0.002/ps)
Setting up Verlet run ...
  Unit style    : metal
  Current step  : 0
  Time step     : 0.002
Step          Temp         v_strain     v_stress_zz        Pxx            Pyy             Lx             Ly           v_Lmat
0   298.6034       2.8636228e-15  0.36905323     615.59848     -369.79987      61.084577      61.132029      119.10106
Averages over the last 6 of 11 rows, steps 500 to 1000:
Temp v_strain v_stress_zz Pxx Pyy Lx Ly v_Lmat
275.937 0.003 0.782867 -2991.59 -3912.9 61.0846 61.132 119.458
      1100   277.45062      0.0044         0.84561013    -3594.838      -4559.4624      61.084577      61.132029   unfix eq

print '=== Phase 5: Tensile Test ==='
=== Phase 5: Tensile Test ===
reset_timestep 0

# グリップ重心間距離で初期材料長を定義
variable zcm_bot equal xcm(bottom,z)
variable zcm_top equal xcm(top,z)
variable tmp_L equal v_zcm_top-v_zcm_bot
variable L0 equal 119.101062803447
Initial grip distance L0 = 119.101062803447 Ang

# 引っ張り速度 = erate × L0
variable vpull equal 0.002*v_L0
velocity top set 0.0 0.      1600   276.41497      0.0064         1.0433703     -5068.3743     -5782.8649      61.084577      61.132029      119.86331
Fix halt condition for fix-id halt_frac met on step 16200 with value 1
Loop time of 313.59 on 4 procs for 16200 steps with 32814 atoms

Fix halt condition for fix-id halt_frac met on step 16200 with value 1
Loop time of 313.59 on 4 procs for 16200 steps with 32814 atoms
