LAMMPS (11 Feb 2026 - Development - b75dfcc)
package gpu 1
units metal
boundary p p p
atom_style atomic
timestep 0.002
read_data data.crystal
Reading data file ...
  orthogonal box = (0 0 0) to (50.61 50.61 50.61)
  reading atoms ...
  10976 atoms
change_box all triclinic
Changing box ...
  triclinic box = (0 0 0) to (50.61 50.61 50.61) with tilt (0 0 0)

pair_style eam/alloy
pair_coeff * * Cu_zhou.eam.alloy Cu
Reading eam/alloy potential file Cu_zhou.eam.alloy with DATE: 2007-10-12

neighbor 2.0 bin
neigh_modify delay 10 check yes

thermo 100
thermo_style custom step temp pe press pxx pyy pzz lx ly lz

print '=== Phase 1: 0K Relaxation ==='
=== Phase 1: 0K Relaxation ===
fix relax all box/relax aniso 0.0 vmax 0.001
minimize 1.0e-8 1.0e-10 10000 100000

CITE-CITE-CITE-CITE-CITE-CITE-CITE-CITE-CITE-CITE-CITE-CITE-CITE

Your simulation uses code contributions which should be cited:

- GPU package (short-range, long-range and three-body potentials): https://doi.org/10.1016/j.cpc.2010.12.021, https://doi.org/10.1016/j.cpc.2011.10.012, https://doi.org/10.1016/j.cpc.2013.08.002, https://doi.org/10.1016/j.commatsci.2014.10.068, https://doi.org/10.1016/j.cpc.2016.10.020, https://doi.org/10.3233/APC200086

@Article{Brown11,
 author = {W. M. Brown and P. Wang and S. J. Plimpton and A. N. Tharrington},
 title = {Implementing Molecular Dynamics on Hybrid High Performance Computers---Short Range Forces},
 journal = {Comput.\ Phys.\ Commun.},
 year =    2011,
 volume =  182,
 pages =   {898--911},
 doi =     {10.1016/j.cpc.2010.12.021Done.

Setting up cg style minimization ...
  Unit style    : metal
  Current step  : 0
 (src/min.cpp:222)
Step          Temp          PotEng         Press           Pxx            Pyy            Pzz             Lx             Ly             Lz
0   0             -38852.884     -214.09019     -214.09011     -214.09034     -214.09012      50.61          50.61          50.61
Loop time of 0.0121211 on 1 procs for 2 steps with 10976 atoms

Minimization stats:
  Stopping criterion = energy tolerance
  Energy initial, next-to-last, final =
  Force two-norm initial, final = 30.002404 1.4813974
  Force max component initial, final = 17.321908 0.85532896
  Final line search alpha, max atom move = 0.0063885363 0.0054643001
  Iterations, force evaluations = 2 6

=== Phase 2: Equilibration at 300.0K ===

      Device Time Info (average):
Data Transfer:   0.0007 s.
Neighbor copy:   0.0000 s.
Neighbor build:  0.0004 s.
Force calc:      0.0070 s.
Device Overhead: 0.0002 s.
CPU Neighbor:    0.0006 s.
CPU Cast/Pack:   0.0011 s.
CPU Driver_Time: 0.0001 s.
CPU Idle_Time:   0.0070 s.
Average split:   1.0000.
Max Mem / Proc:  43.45 MB.
Prefetch mode:   None.
Vector width:    32.
Lanes / atom:    4.
Pair block:      256.
Neigh block:     128.
Neigh mode:      Hybrid (binning on host) with subgroup support.
Neigh sorting:   Unavailable or disabled.

- Using acceleration for eam/alloy:
-  with 1 proc(s) per device.
-  with 1 thread(s) per proc.
-  Horizontal vector operations: ENABLED
-  Shared memory system: No
Device 0: NVIDIA RTX A4000, 48 CUs, 16/16 GB, 1.6 GHZ (Mixed Precision)

Initializing Device and compiling on process 0...Done.
Initializing Device 0 on core 0...Done.

Setting up Verlet run ...
  Unit style    : metal
  Current step  : 0
  Time step     : 0.002
Step          Temp          PotEng         Press           Pxx            Pyy            Pzz             Lx             Ly             Lz
0   300           -38852.885      3517.8864      3476.42        3491.1242      3586.1151      50.607257      50.607257      50.607257
Averages over the last 13 of 26 rows, steps 1300 to 2500:
Temp PotEng Press Pxx Pyy Pzz Lx Ly Lz
299.955 -38415.3 -86.7239 -32.9296 -109.457 -117.785 50.7454 50.7576 50.7433
Loop time of 3.64946 on 1 procs for 2500 steps with 10976 atoms

=== Phase 3: Tension ===

      Device Time Info (average):
Data Transfer:   0.2114 s.
Neighbor copy:   0.0000 s.
Neighbor build:  0.0005 s.
Force calc:      2.0810 s.
Device Overhead: 0.0343 s.
CPU Neighbor:    0.0003 s.
CPU Cast/Pack:   0.3228 sunfix eq

print '=== Phase 3: Tension ==='
=== Phase 3: Tension ===
reset_timestep 0

# 初期z寸法の記録
variable tmp equal lz
variable lz0 equal 50.7086312769003
variable tmp delete

# z軸変形 + x,yゼロ圧力（Poisson収縮を許容）
fix deform_fix all deform 1 z erate 0.0005 remap x
fix npt_fix all npt temp 300.0 300.0 0.1 x 0.0 0.0 1.0 y 0.0 0.0 1.0 xy 0.0 0.0 1.0 xz 0.0 0.0 1.0 yz 0.0 0.0 1.0

# ひずみ・応力（sigma = -P [GPa]）
variable strain equal (lz-v_lz0)/v_lz0
variable stress equal -pzz/10000

# 欠陥解析用compute
# stress/atom: 単位は bar*Å³（実応力はボロノイ体積で割る必要あり）
compute peratom all stress/atom NULL
compute cna all cna/atom 3.087
compute csym all centro/atom fcc

thermo 100
thermo_style custom step temp v_strain v_stress pxx pyy pzz lx ly lz

dump 1 all cuDone.

Setting up Verlet run ...
  Unit style    : metal
  Current step  : 0
  Time step     : 0.002
Step          Temp         v_strain       v_stress    v_stress_drop  v_drop_from_peak      Pxx            Pyy            Pzz             Lx             Ly             Lz
0   299.93501     -1.4012264e-16 -0.06185752     1.3877788e-17  0.06185752     394.59546     -17.130938      618.5752       50.741078      50.786095      50.708631
Averages over the last 6 of 12 rows, steps 600 to 1100:
Temp v_strain v_stress v_stress_drop v_drop_from_peak Pxx Pyy Pzz Lx Ly Lz
297.968 0.00085 0.027995 -0.0389722 0.0186121 -202.306 -196.361 -279.95 50.7506 50.7495 50.7517
      8100   303.31756      0.0081         0.54803786    -0.0033183362   0.049558852    397.03836      41.621767     -5480.3786      50.572001      5-106.50921     -5668.2543      50.661391      50.587876      51.083875
     26500-0.042444217    0.021269977    27.774577      373.01142     -21483.071      50.263448      50.186842      52.087906
     29000   300.754.221067      52.138615
     42800   300.53703      0.0428         3.4916269     -0.043509992    0.0041192821  -2.2215718     -626.43264     -34916.269      49.899838      49.992613      52.8789.188      50.046386      49.863359      52.843465
     45200   302.249.918627      52.960095
     54400   297.42437      0.0544         4.4380875     -0.029313482    0.007746813   -106.38327      265.10121     -  0             -627.75571     -941.07762     -44148.77       49.72365       49.799542      53.431685
     59000   297.54054      0.059          4.8480299     -0.062298746    0             -209.88739     -581.7367      -48480.299      49.639488      49.688941      53.7006.149      49.656946      49.694636      53.664944
     75200   301.57688      0.0752         6.0157787     -0.014019314    0.061220492    371.8134      -353.42453     -60157.787      49.338069      49.448452      54.0198.708      49.388045      49.430709      54.486424
     91400   298.42519      0.0914         7.1405961     -0.054011863    0.0015316987  -290.93906     -398.14317     -71405.961      49.127429      49.185294      5-71421.278      49.186569      49.168636      55.307904
     98400   296.90556      0.0984         7.5016276     -0.017.08407      0.0977         7.4475459      0.0088168429   0.089682714   -36.591843      419.19705     -74475.459      49.158268      48.954586      55.662865
    105300   299.51017      0.1053         7.8392395      0.010386203    0.082437222    1239.742       1194.0547     -78392.395      48.84.29132      575.39443     -78068.299      48.963255      48.940011      56.012754
    114600   301.9976       0.1146         8.3031923      0.302.19013      0.1139         8.2837827     -0.0059595634   0.061933424    774.23303      752.34208     -82837.827      48.849161      48.799025      56.484344
    114400   300.07994      0.1144         8.3344928     -0.018250311    0.4.864      48.723924      48.929381      56.545195
    128500   299.91381      0.12857.184123
Fix halt condition for fix-id halt_peak_fix met on step 143600 with value 1
Loop time of 285.496 on 1 procs for 143600 steps with 10976 atoms

      Device Time Info (average):
Data Transfer:   12.4905 s.
Neighbor copy:   0.0053 s.
Neighbor build:  0.1094 s.
Force calc:      124.8723 s.
Device Overhead: 1.8955 s.
CPU Neighbor:    0.0721 s.
CPU Cast/Pack:   18.7766 s.
CPU Driver_Time: 1.4803 s.
CPU Idle_Time:   109.0982 s.
Average split:   1.0000.
Max Mem / Proc:  42.54 MB.
Prefetch mode:   None.
Vector width:    32.
Lanes / atom:    4.
Pair block:      256.
Neigh block:     128.
Neigh mode:      Hybrid (binning on host) with subgroup support.
Neigh sorting:   Unavailable or disabled.

            |       |  1.62
