LAMMPS (11 Feb 2026 - Development - b75dfcc)
package gpu 1
units metal
boundary p p p
atom_style atomic
timestep 0.002
read_data data.crystal
Reading data file ...
  orthogonal box = (0 0 0) to (101.22 101.22 101.22)
  reading atoms ...
  87808 atoms
change_box all triclinic
Changing box ...
  triclinic box = (0 0 0) to (101.22 101.22 101.22) with tilt (0 0 0)

pair_style eam/alloy
pair_coeff * * Cu_zhou.eam.alloy Cu
Reading eam/alloy potential file Cu_zhou.eam.alloy with DATE: 2007-10-12

neighbor 2.0 bin
neigh_modify delay 10 check yes

thermo 100
thermo_style custom step temp pe press pxx pyy pzz lx ly lz

print '=== Phase 1: 0K Relaxation ==='
=== Phase 1: 0K Relaxation ===
fix relax all box/relax aniso 0.0 vmax 0.001
minimize 1.0e-8 1.0e-10 10000 100000

CITE-CITE-CITE-CITE-CITE-CITE-CITE-CITE-CITE-CITE-CITE-CITE-CITE

Your simulation uses code contributions which should be cited:

- GPU package (short-range, long-range and three-body potentials): https://doi.org/10.1016/j.cpc.2010.12.021, https://doi.org/10.1016/j.cpc.2011.10.012, https://doi.org/10.1016/j.cpc.2013.08.002, https://doi.org/10.1016/j.commatsci.2014.10.068, https://doi.org/10.1016/j.cpc.2016.10.020, https://doi.org/10.3233/APC200086

@Article{Brown11,
 author = {W. M. Brown and P. Wang and S. J. Plimpton and A. N. Tharrington},
 title = {Implementing Molecular Dynamics on Hybrid High Performance Computers---Short Range Forces},
 journal = {Comput.\ Phys.\ Commun.},
 year =    2011,
 volume =  182,
 pages =   {898--911},
 doi =     {10.1016/j.cpc.2010.12.021Done.

Setting up cg style minimization ...
  Unit style    : metal
  Current step  : 0
 (src/min.cpp:222)
Step          Temp          PotEng         Press           Pxx            Pyy            Pzz             Lx             Ly             Lz
0   0             -310823.06     -213.98279     -213.9826      -213.98257     -213.9832       101.22         101.22         101.22
Loop time of 0.701784 on 1 procs for 5 steps with 87808 atoms

Minimization stats:
  Stopping criterion = linesearch alpha is zero
  Energy initial, next-to-last, final =
  Force two-norm initial, final = 239.89882 11.512658
  Force max component initial, final = 138.50592 6.6472528
  Final line search alpha, max atom move = 7.173447e-11 4.7683716e-10
  Iterations, force evaluations = 5 55

=== Phase 2: Equilibration at 300.0K ===

      Device Time Info (average):
Data Transfer:   0.1452 s.
Neighbor copy:   0.0002 s.
Neighbor build:  0.0036 s.
Force calc:      0.3363 s.
Device Overhead: 0.0014 s.
CPU Neighbor:    0.0019 s.
CPU Cast/Pack:   0.0529 s.
CPU Driver_Time: 0.0011 s.
CPU Idle_Time:   0.4118 s.
Average split:   1.0000.
Max Mem / Proc:  336.67 MB.
Prefetch mode:   None.
Vector width:    32.
Lanes / atom:    4.
Pair block:      256.
Neigh block:     128.
Neigh mode:      Hybrid (binning on host) with subgroup support.
Neigh sorting:   Unavailable or disabled.

- Using acceleration for eam/alloy:
-  with 1 proc(s) per device.
-  with 1 thread(s) per proc.
-  Horizontal vector operations: ENABLED
-  Shared memory system: No
Device 0: NVIDIA RTX A4000, 48 CUs, 16/16 GB, 1.6 GHZ (Mixed Precision)

Initializing Device and compiling on process 0...Done.
Initializing Device 0 on core 0...Done.

Setting up Verlet run ...
  Unit style    : metal
  Current step  : 0
  Time step     : 0.002
Step          Temp          PotEng         Press           Pxx            Pyy            Pzz             Lx             Ly             Lz
0   300           -310823.08      3517.9265      3498.1606      3544.5318      3511.0872      101.21452      101.21452      101.21452
Averages over the last 13 of 26 rows, steps 1300 to 2500:
Temp PotEng Press Pxx Pyy Pzz Lx Ly Lz
299.831 -307318 16.8135 36.1277 18.5171 -4.20423 101.491 101.499 101.496
Loop time of 29.5221 on 1 procs for 2500 steps with 87808 atoms

=== Phase 3: Tension ===

      Device Time Info (average):
Data Transfer:   5.6517 s.
Neighbor copy:   0.0002 s.
Neighbor build:  0.0034 s.
Force calc:      14.6712 s.
Device Overhead: 0.0504 s.
CPU Neighbor:    0.0015 s.
CPU Cast/Pack:   2.0829unfix eq

print '=== Phase 3: Tension ==='
=== Phase 3: Tension ===
reset_timestep 0

# 初期z寸法の記録
variable tmp equal lz
variable lz0 equal 101.522105539373
variable tmp delete

# z軸変形 + x,yゼロ圧力（Poisson収縮を許容）
fix deform_fix all deform 1 z erate 0.0005 remap x
fix npt_fix all npt temp 300.0 300.0 0.1 x 0.0 0.0 1.0 y 0.0 0.0 1.0 xy 0.0 0.0 1.0 xz 0.0 0.0 1.0 yz 0.0 0.0 1.0

# ひずみ・応力（sigma = -P [GPa]）
variable strain equal (lz-v_lz0)/v_lz0
variable stress equal -pzz/10000

# 欠陥解析用compute
# stress/atom: 単位は bar*Å³（実応力はボロノイ体積で割る必要あり）
compute peratom all stress/atom NULL
compute cna all cna/atom 3.087
compute csym all centro/atom fcc

thermo 100
thermo_style custom step temp v_strain v_stress pxx pyy pzz lx ly lz

dump 1 all customDone.

Setting up Verlet run ...
  Unit style    : metal
  Current step  : 0
  Time step     : 0.002
Step          Temp         v_strain       v_stress    v_stress_drop  v_drop_from_peak      Pxx            Pyy            Pzz             Lx             Ly             Lz
0   298.48518     -4.7592498e-15 -0.0012066648   2.6020852e-18  0.0012066648   387.34799      293.87663      12.066648      101.46201      101.4762       101.52211
Averages over the last 6 of 12 rows, steps 600 to 1100:
Temp v_strain v_stress v_stress_drop v_drop_from_peak Pxx Pyy Pzz Lx Ly Lz
299.979 0.00085 0.0772975 -0.0189536 0.025023 94.5687 84.4377 -772.975 101.446 101.449 101.608
      1000   301.01601      0.001          0.058670593    0.0046654635   0.043649911    455.2.43442      101.41943      101.69469
      3300   298.60385      0.0033         0.26597986    -0.03175698     0              231.7234       75.704832     -  101.92819
     22000   298.62744      0.022          1.8057473     -0.043538376    0             -117.77352     -160.25828     -            -295.81292     -99.833876     -17559.296      100.66434      100.6295       103.68453
     26500   2-0.0077602246   0.030543477    467.03224      274.08484     -22148.036      100.38201      100.42622      104.28351
     47300   300.93856      0.0473         3.9548027     -0.04.292958     -39991.654      99.626741      99.677839      106.39517
     63500   301.36079      0.0635         5.2470745     -0.34.140028     -53067.808      99.099309      99.103936      108.03982
     79700   299.98881      0.0797         6.4045499     -  348.62747     -64567.022      98.602896      98.558565      109.68448
     93600   299.917        0.0.013569735    37.773628      53.436523     -73467.75       98.206402      98.160486      111.09564
    100500   300.14353      0.1005         7.6973635     -0.028033647    0              94.421839      33.7.891724      111.79614
    112300   300.40378      0.12.84182
    114400   301.63296      0.1144         8.3775249     -0.0037779979   0.02321.763      97.596532      97.64123       113.2073
Loop time of 2300.08 on 1 procs for 142800 steps with 87808 atoms

      Device Time Info (average):
Data Transfer:   344.5983 s.
Neighbor copy:   0.0396 s.
Neighbor build:  1.2732 s.
Force calc:      881.0617 s.
Device Overhead: 2.1966 s.
CPU Neighbor:    0.4399 s.
CPU Cast/Pack:   120.1449 s.
CPU Driver_Time: 1.7384 s.
CPU Idle_Time:   1014.5116 s.
Average split:   1.0000.
Max Mem / Proc:  331.34 MB.
Prefetch mode:   None.
Vector width:    32.
Lanes / atom:    4.
Pair block:      256.
Neigh block:     128.
Neigh mode:      Hybrid (binning on host) with subgroup support.
Neigh sorting:   Unavailable or disabled.

   |       |  1.62
