LAMMPS (11 Feb 2026 - Development - b75dfcc)
package gpu 1
units metal
boundary p p p
atom_style atomic
timestep 0.002
read_data data.crystal
Reading data file ...
  orthogonal box = (0 0 0) to (51.12382 50.61 51.12382)
  reading atoms ...
  11200 atoms
change_box all triclinic
Changing box ...
  triclinic box = (0 0 0) to (51.12382 50.61 51.12382) with tilt (0 0 0)

pair_style eam/alloy
pair_coeff * * Cu_zhou.eam.alloy Cu
Reading eam/alloy potential file Cu_zhou.eam.alloy with DATE: 2007-10-12

neighbor 2.0 bin
neigh_modify delay 10 check yes

thermo 100
thermo_style custom step temp pe press pxx pyy pzz lx ly lz

print '=== Phase 1: 0K Relaxation ==='
=== Phase 1: 0K Relaxation ===
fix relax all box/relax aniso 0.0 vmax 0.001
minimize 1.0e-8 1.0e-10 10000 100000

CITE-CITE-CITE-CITE-CITE-CITE-CITE-CITE-CITE-CITE-CITE-CITE-CITE

Your simulation uses code contributions which should be cited:

- GPU package (short-range, long-range and three-body potentials): https://doi.org/10.1016/j.cpc.2010.12.021, https://doi.org/10.1016/j.cpc.2011.10.012, https://doi.org/10.1016/j.cpc.2013.08.002, https://doi.org/10.1016/j.commatsci.2014.10.068, https://doi.org/10.1016/j.cpc.2016.10.020, https://doi.org/10.3233/APC200086

@Article{Brown11,
 author = {W. M. Brown and P. Wang and S. J. Plimpton and A. N. Tharrington},
 title = {Implementing Molecular Dynamics on Hybrid High Performance Computers---Short Range Forces},
 journal = {Comput.\ Phys.\ Commun.},
 year =    2011,
 volume =  182,
 pages =   {898--911},
 doi =     {10.1016/j.cpc.2010.12.021Done.

Setting up cg style minimization ...
  Unit style    : metal
  Current step  : 0
 (src/min.cpp:222)
Step          Temp          PotEng         Press           Pxx            Pyy            Pzz             Lx             Ly             Lz
0   0             -39645.8       -214.16286     -214.18801     -214.11211     -214.18846      51.12382       50.61          51.12382
Loop time of 0.0129576 on 1 procs for 3 steps with 11200 atoms

Minimization stats:
  Stopping criterion = energy tolerance
  Energy initial, next-to-last, final =
  Force two-norm initial, final = 30.62509 0.001777244
  Force max component initial, final = 17.683517 0.0010150456
  Final line search alpha, max atom move = 0.096129701 9.7576031e-05
  Iterations, force evaluations = 3 6

=== Phase 2: Equilibration at 300.0K ===

      Device Time Info (average):
Data Transfer:   0.0012 s.
Neighbor copy:   0.0000 s.
Neighbor build:  0.0005 s.
Force calc:      0.0071 s.
Device Overhead: 0.0002 s.
CPU Neighbor:    0.0007 s.
CPU Cast/Pack:   0.0012 s.
CPU Driver_Time: 0.0002 s.
CPU Idle_Time:   0.0073 s.
Average split:   1.0000.
Max Mem / Proc:  38.63 MB.
Prefetch mode:   None.
Vector width:    32.
Lanes / atom:    4.
Pair block:      256.
Neigh block:     128.
Neigh mode:      Hybrid (binning on host) with subgroup support.
Neigh sorting:   Unavailable or disabled.

- Using acceleration for eam/alloy:
-  with 1 proc(s) per device.
-  with 1 thread(s) per proc.
-  Horizontal vector operations: ENABLED
-  Shared memory system: No
Device 0: NVIDIA RTX A4000, 48 CUs, 16/16 GB, 1.6 GHZ (Mixed Precision)

Initializing Device and compiling on process 0...Done.
Initializing Device 0 on core 0...Done.

Setting up Verlet run ...
  Unit style    : metal
  Current step  : 0
  Time step     : 0.002
Step          Temp          PotEng         Press           Pxx            Pyy            Pzz             Lx             Ly             Lz
0   300           -39645.801      3507.3045      3515.0579      3505.3018      3501.5539      51.121179      50.607387      51.121179
Averages over the last 13 of 26 rows, steps 1300 to 2500:
Temp PotEng Press Pxx Pyy Pzz Lx Ly Lz
299.501 -39198.5 -98.9827 -121.836 -98.7104 -76.4019 51.2641 50.7466 51.2676
Loop time of 3.87293 on 1 procs for 2500 steps with 11200 atoms

=== Phase 3: Tension ===

      Device Time Info (average):
Data Transfer:   0.3482 s.
Neighbor copy:   0.0000 s.
Neighbor build:  0.0005 s.
Force calc:      2.0812 s.
Device Overhead: 0.0488 s.
CPU Neighbor:    0.0003 s.
CPU Cast/Pack:   0.3365 sunfix eq

print '=== Phase 3: Tension ==='
=== Phase 3: Tension ===
reset_timestep 0

# 初期z寸法の記録
variable tmp equal lz
variable lz0 equal 51.2753331975681
variable tmp delete

# z軸変形 + x,yゼロ圧力（Poisson収縮を許容）
fix deform_fix all deform 1 z erate 0.0005 remap x
fix npt_fix all npt temp 300.0 300.0 0.1 x 0.0 0.0 1.0 y 0.0 0.0 1.0 xy 0.0 0.0 1.0 xz 0.0 0.0 1.0 yz 0.0 0.0 1.0

# ひずみ・応力（sigma = -P [GPa]）
variable strain equal (lz-v_lz0)/v_lz0
variable stress equal -pzz/10000

# 欠陥解析用compute
# stress/atom: 単位は bar*Å³（実応力はボロノイ体積で割る必要あり）
compute peratom all stress/atom NULL
compute cna all cna/atom 3.087
compute csym all centro/atom fcc

thermo 100
thermo_style custom step temp v_strain v_stress pxx pyy pzz lx ly lz

dump 1 all cuDone.

Setting up Verlet run ...
  Unit style    : metal
  Current step  : 0
  Time step     : 0.002
Step          Temp         v_strain       v_stress    v_stress_drop  v_drop_from_peak      Pxx            Pyy            Pzz             Lx             Ly             Lz
0   300.65647      4.1572196e-16 -0.043561056    4.1633363e-17  0.043561056    283.86824      579.81851      435.61056      51.274018      50.715406      51.275333
Averages over the last 6 of 12 rows, steps 600 to 1100:
Temp v_strain v_stress v_stress_drop v_drop_from_peak Pxx Pyy Pzz Lx Ly Lz
300.464 0.00085 0.138946 -0.0448037 0.0364289 -336.755 -101.507 -1389.46 51.2743 50.7074 51.3189
     26500-0.058932104    0             -53.049011      183.28186     -31283.443      51.306363      49.757485      52.670022
     29000   300.394.699964      52.721298
     42800   297.85857      0.0428         4.4412143     -0.045898496    0.035539881    1119.7915     -61.324128     -44412.143      51.301896      49.192265      53.4699.121      51.315816      49.224703      53.434025
     45200   298.949.0616        53.551958
     54400   299.59795      0.0544         5.1408357     -0.033324291    0.042021403    653.69075      613.34872     -  0.10180574     573.29723      634.82485     -50297.733      51.389427      48.703923      54.028819
     59000   297.73252      0.059          5.3533825     -0.0064647036   0.052475707   -200.13175     -89.230544     -53533.825      51.429561      48.496968      54.3004.821      51.436892      48.551181      54.264685
Fix halt condition for fix-id halt_peak_fix met on step 71900 with value 1
Loop time of 148.051 on 1 procs for 71900 steps with 11200 atoms

      Device Time Info (average):
Data Transfer:   10.0870 s.
Neighbor copy:   0.0012 s.
Neighbor build:  0.0183 s.
Force calc:      62.5569 s.
Device Overhead: 1.3069 s.
CPU Neighbor:    0.0129 s.
CPU Cast/Pack:   9.6799 s.
CPU Driver_Time: 1.0677 s.
CPU Idle_Time:   56.1965 s.
Average split:   1.0000.
Max Mem / Proc:  37.74 MB.
Prefetch mode:   None.
Vector width:    32.
Lanes / atom:    4.
Pair block:      256.
Neigh block:     128.
Neigh mode:      Hybrid (binning on host) with subgroup support.
Neigh sorting:   Unavailable or disabled.

   |            |       |  1.54
