LAMMPS (11 Feb 2026 - Development - b75dfcc)
package gpu 1
units metal
boundary p p p
atom_style atomic
timestep 0.002
read_data data.crystal
Reading data file ...
  orthogonal box = (0 0 0) to (52.057201 49.08 52.057201)
  reading atoms ...
  7776 atoms
change_box all triclinic
Changing box ...
  triclinic box = (0 0 0) to (52.057201 49.08 52.057201) with tilt (0 0 0)

pair_style eam
pair_coeff 1 1 Ag_u3.eam
Reading eam potential file Ag_u3.eam with DATE: 2007-06-11

neighbor 2.0 bin
neigh_modify delay 10 check yes

thermo 100
thermo_style custom step temp pe press pxx pyy pzz lx ly lz

print '=== Phase 1: 0K Relaxation ==='
=== Phase 1: 0K Relaxation ===
fix relax all box/relax aniso 0.0 vmax 0.001
minimize 1.0e-8 1.0e-10 10000 100000

CITE-CITE-CITE-CITE-CITE-CITE-CITE-CITE-CITE-CITE-CITE-CITE-CITE

Your simulation uses code contributions which should be cited:

- GPU package (short-range, long-range and three-body potentials): https://doi.org/10.1016/j.cpc.2010.12.021, https://doi.org/10.1016/j.cpc.2011.10.012, https://doi.org/10.1016/j.cpc.2013.08.002, https://doi.org/10.1016/j.commatsci.2014.10.068, https://doi.org/10.1016/j.cpc.2016.10.020, https://doi.org/10.3233/APC200086

@Article{Brown11,
 author = {W. M. Brown and P. Wang and S. J. Plimpton and A. N. Tharrington},
 title = {Implementing Molecular Dynamics on Hybrid High Performance Computers---Short Range Forces},
 journal = {Comput.\ Phys.\ Commun.},
 year =    2011,
 volume =  182,
 pages =   {898--911},
 doi =     {10.1016/j.cpc.2010.12.021}
}

@ArticDone.

Setting up cg style minimization ...
  Unit style    : metal
  Current step  : 0
 (src/min.cpp:222)
Step          Temp          PotEng         Press           Pxx            Pyy            Pzz             Lx             Ly             Lz
0   0             -22161.6       -0.079048517   -0.075182451   -0.086867936   -0.075095165    52.057201      49.08          52.057201
Loop time of 0.0280807 on 1 procs for 3 steps with 7776 atoms

Minimization stats:
  Stopping criterion = linesearch alpha is zero
  Energy initial, next-to-last, final =
  Force two-norm initial, final = 0.011410516 0.30827769
  Force max component initial, final = 0.0072113293 0.18415333
  Final line search alpha, max atom move = 8.2859153e-08 1.5258789e-08
  Iterations, force evaluations = 3 40

=== Phase 2: Equilibration at 300.0K ===

      Device Time Info (average):
Data Transfer:   0.0041 s.
Neighbor copy:   0.0000 s.
Neighbor build:  0.0001 s.
Force calc:      0.0071 s.
Device Overhead: 0.0013 s.
CPU Neighbor:    0.0004 s.
CPU Cast/Pack:   0.0040 s.
CPU Driver_Time: 0.0012 s.
CPU Idle_Time:   0.0071 s.
Average split:   1.0000.
Max Mem / Proc:  7.38 MB.
Prefetch mode:   None.
Vector width:    32.
Lanes / atom:    4.
Pair block:      256.
Neigh block:     128.
Neigh mode:      Hybrid (binning on host) with subgroup support.
Neigh sorting:   Unavailable or disabled.

- Using acceleration for eam:
-  with 1 proc(s) per device.
-  with 1 thread(s) per proc.
-  Horizontal vector operations: ENABLED
-  Shared memory system: No
Device 0: NVIDIA RTX A4000, 48 CUs, 16/16 GB, 1.6 GHZ (Mixed Precision)

Initializing Device and compiling on process 0...Done.
Initializing Device 0 on core 0...Done.

Setting up Verlet run ...
  Unit style    : metal
  Current step  : 0
  Time step     : 0.002
Step          Temp          PotEng         Press           Pxx            Pyy            Pzz             Lx             Ly             Lz
0   300           -22161.601      2423.376       2488.0623      2402.2701      2379.7957      52.05717       49.079954      52.05717
Averages over the last 13 of 26 rows, steps 1300 to 2500:
Temp PotEng Press Pxx Pyy Pzz Lx Ly Lz
300.954 -21849.1 256.84 212.865 278.859 278.795 52.3636 49.3616 52.3602
Loop time of 1.62472 on 1 procs for 2500 steps with 7776 atoms

=== Phase 3: Tension ===

      Device Time Info (average):
Data Transfer:   0.2369 s.
Neighbor copy:   0.0000 s.
Neighbor build:  0.0001 s.
Force calc:      0.4185 s.
Device Overhead: 0.0642 s.
CPU Neighbor:    0.0002 s.
CPU Cast/Pack:   0.21unfix eq

print '=== Phase 3: Tension ==='
=== Phase 3: Tension ===
reset_timestep 0

# 初期z寸法の記録
variable tmp equal lz
variable lz0 equal 52.3180410068987
variable tmp delete

# z軸変形 + x,yゼロ圧力（Poisson収縮を許容）
fix deform_fix all deform 1 z erate 0.0005 remap x
fix npt_fix all npt temp 300.0 300.0 0.1 x 0.0 0.0 1.0 y 0.0 0.0 1.0 xy 0.0 0.0 1.0 xz 0.0 0.0 1.0 yz 0.0 0.0 1.0

# ひずみ・応力（sigma = -P [GPa]）
variable strain equal (lz-v_lz0)/v_lz0
variable stress equal -pzz/10000

# 欠陥解析用compute
# stress/atom: 単位は bar*Å³（実応力はボロノイ体積で割る必要あり）
compute peratom all stress/atom NULL
compute cna all cna/atom 3.493
compute csym all centro/atom fcc

thermo 100
thermo_style custom step temp v_strain v_stress pxx pyy pzz lx ly lz

dump 1 allDone.

Setting up Verlet run ...
  Unit style    : metal
  Current step  : 0
  Time step     : 0.002
Step          Temp         v_strain       v_stress    v_stress_drop  v_drop_from_peak      Pxx            Pyy            Pzz             Lx             Ly             Lz
0   302.94358     -9.5068528e-16 -0.080374675    0              0.080374675    373.42635      111.64777      803.74675      52.349455      49.421007      52.318041
Averages over the last 6 of 12 rows, steps 600 to 1100:
Temp v_strain v_stress v_stress_drop v_drop_from_peak Pxx Pyy Pzz Lx Ly Lz
300.854 0.00085 -0.0266867 -0.0273188 0.0268417 381.502 323.765 266.867 52.3572 49.3658 52.3625
     14900   300.55448      0.0149         1.1640716     -0.0745160-11601.372      52.453947      48.81943       53.134202
     19700   301.48681      0.0197         1.3416746      0.027354339    0.077012562    886.30832      607.00.018374992    0.021627487    398.46984     -9.5415004     -13896.303      52.47537       48.655988      53.312084
     21800   299.0938       0.0218         1.5284014     -0.010969251    0.063657643   -1011.0292     -37.121086     -15284.014      52.5610885.66831      0.0226         1.6178832     -0.055910522    0             -254.17261     -615.67808     -16178.832      52.499916      48.523263      53.500429
     38000   305.55746      0.038          2.2487965      0.052643184    0.090044676   -1013.7752     -121.65606     -22487.965      52.6907304.83798      0.0388         2.2003802      0.07049803     0.13846104     1027.2667      1225.4763     -22003.802      52.635632      47.768663      54.347981
     40500   299.86797      0.0405         2.446141      -0.060693442    0             -760.18531     -960.02918     -24461.41       52.664829      47.76067.16221     -23761.648      52.676707      47.742418      54.400299
     49800   301.42708      0.0498         2.6729529     -0.056108889    0.0538.0491         2.5551945      0.063891785    0.1715914     -712.19994      185.60202     -25551.945      52.833785      47.266627      54.886857
     56700   301.00789      0.0567         2.7520159      0.019132477    0.096281622    719.0815       173.36203     -27520.159      52.819413      46.98831.4682      -27400.654      52.915615      46.967478      55.247851
Fix halt condition for fix-id halt_peak_fix met on step 69300 with value 1
Loop time of 59.8533 on 1 procs for 69300 steps with 7776 atoms

      Device Time Info (average):
Data Transfer:   6.5069 s.
Neighbor copy:   0.0015 s.
Neighbor build:  0.0077 s.
Force calc:      12.4512 s.
Device Overhead: 1.7260 s.
CPU Neighbor:    0.0123 s.
CPU Cast/Pack:   6.0086 s.
CPU Driver_Time: 1.4742 s.
CPU Idle_Time:   12.2012 s.
Average split:   1.0000.
Max Mem / Proc:  6.86 MB.
Prefetch mode:   None.
Vector width:    32.
Lanes / atom:    4.
Pair block:      256.
Neigh block:     128.
Neigh mode:      Hybrid (binning on host) with subgroup support.
Neigh sorting:   Unavailable or disabled.

336      |            |       |  2.23
