LAMMPS (11 Feb 2026 - Development - b75dfcc)
package gpu 1
units metal
boundary p p p
atom_style atomic
timestep 0.002
read_data data.crystal
Reading data file ...
  orthogonal box = (0 0 0) to (98.16 98.16 98.16)
  reading atoms ...
  55296 atoms
change_box all triclinic
Changing box ...
  triclinic box = (0 0 0) to (98.16 98.16 98.16) with tilt (0 0 0)

pair_style eam
pair_coeff 1 1 Ag_u3.eam
Reading eam potential file Ag_u3.eam with DATE: 2007-06-11

neighbor 2.0 bin
neigh_modify delay 10 check yes

thermo 100
thermo_style custom step temp pe press pxx pyy pzz lx ly lz

print '=== Phase 1: 0K Relaxation ==='
=== Phase 1: 0K Relaxation ===
fix relax all box/relax aniso 0.0 vmax 0.001
minimize 1.0e-8 1.0e-10 10000 100000

CITE-CITE-CITE-CITE-CITE-CITE-CITE-CITE-CITE-CITE-CITE-CITE-CITE

Your simulation uses code contributions which should be cited:

- GPU package (short-range, long-range and three-body potentials): https://doi.org/10.1016/j.cpc.2010.12.021, https://doi.org/10.1016/j.cpc.2011.10.012, https://doi.org/10.1016/j.cpc.2013.08.002, https://doi.org/10.1016/j.commatsci.2014.10.068, https://doi.org/10.1016/j.cpc.2016.10.020, https://doi.org/10.3233/APC200086

@Article{Brown11,
 author = {W. M. Brown and P. Wang and S. J. Plimpton and A. N. Tharrington},
 title = {Implementing Molecular Dynamics on Hybrid High Performance Computers---Short Range Forces},
 journal = {Comput.\ Phys.\ Commun.},
 year =    2011,
 volume =  182,
 pages =   {898--911},
 doi =     {10.1016/j.cpc.2010.12.021}
}

@ArticDone.

Setting up cg style minimization ...
  Unit style    : metal
  Current step  : 0
 (src/min.cpp:222)
Step          Temp          PotEng         Press           Pxx            Pyy            Pzz             Lx             Ly             Lz
0   0             -157593.6      -0.12263306    -0.12286303    -0.12199961    -0.12303655     98.16          98.16          98.16
Loop time of 0.00986643 on 1 procs for 1 steps with 55296 atoms

Minimization stats:
  Stopping criterion = energy tolerance
  Energy initial, next-to-last, final =
  Force two-norm initial, final = 0.12547114 0.058189769
  Force max component initial, final = 0.072631907 0.033843643
  Final line search alpha, max atom move = 0.013768054 0.00046596109
  Iterations, force evaluations = 1 2

=== Phase 2: Equilibration at 300.0K ===

      Device Time Info (average):
Data Transfer:   0.0011 s.
Neighbor copy:   0.0000 s.
Neighbor build:  0.0003 s.
Force calc:      0.0029 s.
Device Overhead: 0.0001 s.
CPU Neighbor:    0.0011 s.
CPU Cast/Pack:   0.0022 s.
CPU Driver_Time: 0.0001 s.
CPU Idle_Time:   0.0036 s.
Average split:   1.0000.
Max Mem / Proc:  46.63 MB.
Prefetch mode:   None.
Vector width:    32.
Lanes / atom:    4.
Pair block:      256.
Neigh block:     128.
Neigh mode:      Hybrid (binning on host) with subgroup support.
Neigh sorting:   Unavailable or disabled.

- Using acceleration for eam:
-  with 1 proc(s) per device.
-  with 1 thread(s) per proc.
-  Horizontal vector operations: ENABLED
-  Shared memory system: No
Device 0: NVIDIA RTX A4000, 48 CUs, 16/16 GB, 1.6 GHZ (Mixed Precision)

Initializing Device and compiling on process 0...Done.
Initializing Device 0 on core 0...Done.

Setting up Verlet run ...
  Unit style    : metal
  Current step  : 0
  Time step     : 0.002
Step          Temp          PotEng         Press           Pxx            Pyy            Pzz             Lx             Ly             Lz
0   300           -157593.6       2421.6292      2427.2299      2419.1517      2418.5061      98.159996      98.159996      98.159996
Averages over the last 13 of 26 rows, steps 1300 to 2500:
Temp PotEng Press Pxx Pyy Pzz Lx Ly Lz
299.666 -155361 40.9765 59.7556 46.1901 16.984 98.7487 98.7373 98.7346
Loop time of 8.33976 on 1 procs for 2500 steps with 55296 atoms

=== Phase 3: Tension ===

      Device Time Info (average):
Data Transfer:   0.6213 s.
Neighbor copy:   0.0001 s.
Neighbor build:  0.0007 s.
Force calc:      2.4175 s.
Device Overhead: 0.0469 s.
CPU Neighbor:    0.0013 s.
CPU Cast/Pack:   1.2unfix eq

print '=== Phase 3: Tension ==='
=== Phase 3: Tension ===
reset_timestep 0

# 初期z寸法の記録
variable tmp equal lz
variable lz0 equal 98.7139418933226
variable tmp delete

# z軸変形 + x,yゼロ圧力（Poisson収縮を許容）
fix deform_fix all deform 1 z erate 0.0005 remap x
fix npt_fix all npt temp 300.0 300.0 0.1 x 0.0 0.0 1.0 y 0.0 0.0 1.0 xy 0.0 0.0 1.0 xz 0.0 0.0 1.0 yz 0.0 0.0 1.0

# ひずみ・応力（sigma = -P [GPa]）
variable strain equal (lz-v_lz0)/v_lz0
variable stress equal -pzz/10000

# 欠陥解析用compute
# stress/atom: 単位は bar*Å³（実応力はボロノイ体積で割る必要あり）
compute peratom all stress/atom NULL
compute cna all cna/atom 3.493
compute csym all centro/atom fcc

thermo 100
thermo_style custom step temp v_strain v_stress pxx pyy pzz lx ly lz

dump 1 all cDone.

Setting up Verlet run ...
  Unit style    : metal
  Current step  : 0
  Time step     : 0.002
Step          Temp         v_strain       v_stress    v_stress_drop  v_drop_from_peak      Pxx            Pyy            Pzz             Lx             Ly             Lz
0   297.57099      1.4395996e-16 -0.02295424    -1.7347235e-17  0.02295424     285.49484      224.28167      229.5424       98.745441      98.740305      98.713942
Averages over the last 6 of 12 rows, steps 600 to 1100:
Temp v_strain v_stress v_stress_drop v_drop_from_peak Pxx Pyy Pzz Lx Ly Lz
300.46 0.00085 0.0499527 -0.0296181 0.0102122 -214.338 -239.601 -499.527 98.7279 98.7293 98.7978
     14900   298.44748      0.0149         0.68686303     0.003418540-7632.8601      98.145737      98.134857      100.25388
     19700   298.96403      0.0197         0.97462913    -0.0061227829   0.013538779    109.52576     -29.0.035869534    0             -400.49474      76.368617     -9511.0551      98.096421      97.937627      100.58951
     38000   298.91266      0.038          2.0010713     -0.027378307    0              36.622054      148.43116     -20010.713      97.363442300.60475      0.0388         2.0351111     -0.028800545    0              168.05342      282.4483      -20351.111      97.326035      97.277411      102.54404
     40500   298.88085      0.0405         2.1264384      0.0013628226   0.012769977    165.90217      418.90252     -21264.384      97.302995      97.193.73371     -21305.082      97.33277       97.250484      102.64276
     49800   298.01941      0.0498         2.6575372      0.0005087686   0.01.0491         2.6501657     -0.018134747    0.0078772747  -160.26565      52.459024     -26501.657      97.025445      96.942009      103.5608
     56700   298.45107      0.0567         3.0719151     -0.0089166617   0.017565379    444.68217      418.42369     -30719.151      96.74379       96.727.60034     -30508.078      96.76927       96.750374      104.24192
     72900   300.87444      0.0729         4.0539589     -0.021875742    0              151.95792      155.64045     -40539.589      96.28226       96-108.89768     -40433.849      96.260551      96.345249      105.84109
     9130-0.029614551    0.013736803   -67.69588      -180.79014     -51146.03       96.680333      94.914277      107.79562
     93800   299.3205.481108      107.89434
Fix halt condition for fix-id halt_peak_fix met on step 95400 with value 1
Loop time of 432.175 on 1 procs for 95400 steps with 55296 atoms

      Device Time Info (average):
Data Transfer:   23.9281 s.
Neighbor copy:   0.0052 s.
Neighbor build:  0.0614 s.
Force calc:      94.0726 s.
Device Overhead: 1.7465 s.
CPU Neighbor:    0.1142 s.
CPU Cast/Pack:   47.2357 s.
CPU Driver_Time: 1.3954 s.
CPU Idle_Time:   92.7361 s.
Average split:   1.0000.
Max Mem / Proc:  91.41 MB.
Prefetch mode:   None.
Vector width:    32.
Lanes / atom:    4.
Pair block:      256.
Neigh block:     128.
Neigh mode:      Hybrid (binning on host) with subgroup support.
Neigh sorting:   Unavailable or disabled.

  |            |       |  2.52
