LAMMPS (11 Feb 2026 - Development - b75dfcc)
package gpu 1
units metal
boundary p p p
atom_style atomic
timestep 0.002
read_data data.crystal
Reading data file ...
  orthogonal box = (0 0 0) to (101.95 101.95 101.95)
  reading atoms ...
  62500 atoms
change_box all triclinic
Changing box ...
  triclinic box = (0 0 0) to (101.95 101.95 101.95) with tilt (0 0 0)

pair_style eam
pair_coeff 1 1 Au_u3.eam
Reading eam potential file Au_u3.eam with DATE: 2007-06-11

neighbor 2.0 bin
neigh_modify delay 10 check yes

thermo 100
thermo_style custom step temp pe press pxx pyy pzz lx ly lz

print '=== Phase 1: 0K Relaxation ==='
=== Phase 1: 0K Relaxation ===
fix relax all box/relax aniso 0.0 vmax 0.001
minimize 1.0e-8 1.0e-10 10000 100000

CITE-CITE-CITE-CITE-CITE-CITE-CITE-CITE-CITE-CITE-CITE-CITE-CITE

Your simulation uses code contributions which should be cited:

- GPU package (short-range, long-range and three-body potentials): https://doi.org/10.1016/j.cpc.2010.12.021, https://doi.org/10.1016/j.cpc.2011.10.012, https://doi.org/10.1016/j.cpc.2013.08.002, https://doi.org/10.1016/j.commatsci.2014.10.068, https://doi.org/10.1016/j.cpc.2016.10.020, https://doi.org/10.3233/APC200086

@Article{Brown11,
 author = {W. M. Brown and P. Wang and S. J. Plimpton and A. N. Tharrington},
 title = {Implementing Molecular Dynamics on Hybrid High Performance Computers---Short Range Forces},
 journal = {Comput.\ Phys.\ Commun.},
 year =    2011,
 volume =  182,
 pages =   {898--911},
 doi =     {10.1016/j.cpc.2010.12.021}
}

@ArticDone.

Setting up cg style minimization ...
  Unit style    : metal
  Current step  : 0
 (src/min.cpp:222)
Step          Temp          PotEng         Press           Pxx            Pyy            Pzz             Lx             Ly             Lz
0   0             -245623.79      2464.2699      2464.2697      2464.2704      2464.2695      101.95         101.95         101.95
Loop time of 0.0320456 on 1 procs for 2 steps with 62500 atoms

Minimization stats:
  Stopping criterion = energy tolerance
  Energy initial, next-to-last, final =
  Force two-norm initial, final = 2822.9308 0.032365177
  Force max component initial, final = 1629.8202 0.018944325
  Final line search alpha, max atom move = 0.00019380481 3.6715013e-06
  Iterations, force evaluations = 2 4

=== Phase 2: Equilibration at 300.0K ===

      Device Time Info (average):
Data Transfer:   0.0163 s.
Neighbor copy:   0.0001 s.
Neighbor build:  0.0004 s.
Force calc:      0.0055 s.
Device Overhead: 0.0002 s.
CPU Neighbor:    0.0029 s.
CPU Cast/Pack:   0.0038 s.
CPU Driver_Time: 0.0002 s.
CPU Idle_Time:   0.0186 s.
Average split:   1.0000.
Max Mem / Proc:  52.66 MB.
Prefetch mode:   None.
Vector width:    32.
Lanes / atom:    4.
Pair block:      256.
Neigh block:     128.
Neigh mode:      Hybrid (binning on host) with subgroup support.
Neigh sorting:   Unavailable or disabled.

- Using acceleration for eam:
-  with 1 proc(s) per device.
-  with 1 thread(s) per proc.
-  Horizontal vector operations: ENABLED
-  Shared memory system: No
Device 0: NVIDIA RTX A4000, 48 CUs, 16/16 GB, 1.6 GHZ (Mixed Precision)

Initializing Device and compiling on process 0...Done.
Initializing Device 0 on core 0...Done.

Setting up Verlet run ...
  Unit style    : metal
  Current step  : 0
  Time step     : 0.002
Step          Temp          PotEng         Press           Pxx            Pyy            Pzz             Lx             Ly             Lz
0   300           -245625         2439.3411      2435.7852      2465.7685      2416.4696      102            102            102
Averages over the last 13 of 26 rows, steps 1300 to 2500:
Temp PotEng Press Pxx Pyy Pzz Lx Ly Lz
299.862 -243119 -1.3033 -6.75995 7.56679 -4.71673 102.385 102.375 102.375
Loop time of 12.2058 on 1 procs for 2500 steps with 62500 atoms

=== Phase 3: Tension ===

      Device Time Info (average):
Data Transfer:   3.8730 s.
Neighbor copy:   0.0001 s.
Neighbor build:  0.0007 s.
Force calc:      2.3069 s.
Device Overhead: 0.0583 s.
CPU Neighbor:    0.0032 s.
CPU Cast/Pack:   1.3unfix eq

print '=== Phase 3: Tension ==='
=== Phase 3: Tension ===
reset_timestep 0

# 初期z寸法の記録
variable tmp equal lz
variable lz0 equal 102.366777594746
variable tmp delete

# z軸変形 + x,yゼロ圧力（Poisson収縮を許容）
fix deform_fix all deform 1 z erate 0.0005 remap x
fix npt_fix all npt temp 300.0 300.0 0.1 x 0.0 0.0 1.0 y 0.0 0.0 1.0 xy 0.0 0.0 1.0 xz 0.0 0.0 1.0 yz 0.0 0.0 1.0

# ひずみ・応力（sigma = -P [GPa]）
variable strain equal (lz-v_lz0)/v_lz0
variable stress equal -pzz/10000

# 欠陥解析用compute
# stress/atom: 単位は bar*Å³（実応力はボロノイ体積で割る必要あり）
compute peratom all stress/atom NULL
compute cna all cna/atom 3.483
compute csym all centro/atom fcc

thermo 100
thermo_style custom step temp v_strain v_stress pxx pyy pzz lx ly lz

dump 1 all cDone.

Setting up Verlet run ...
  Unit style    : metal
  Current step  : 0
  Time step     : 0.002
Step          Temp         v_strain       v_stress    v_stress_drop  v_drop_from_peak      Pxx            Pyy            Pzz             Lx             Ly             Lz
0   300.79343      2.7764583e-16 -0.012554173    1.0408341e-17  0.012554173    129.2952      -34.91636       125.54173      102.33472      102.42321      102.36678
Averages over the last 6 of 12 rows, steps 600 to 1100:
Temp v_strain v_stress v_stress_drop v_drop_from_peak Pxx Pyy Pzz Lx Ly Lz
300.603 0.00085 0.020981 -0.0126579 0.00689305 42.3784 27.7623 -209.81 102.334 102.353 102.454
     14900   298.70789      0.0149         0.49386228    -0.020873017-5363.0076      101.64012      101.6812       103.9637
     38000   299.43739      0.038          1.4052193     -0.018193883    0.014740366   -19.330645      31.37457      -14052.193      100.64387299.10344      0.0388         1.4832279     -0.052298464    0             -426.72206     -341.36129     -14832.279      100.66895      100.61503      106.33861
     40500   303.39212      0.0405         1.4891663      0.011273384    0.041962886    324.26066      384.58678     -14891.663      100.52791      100.56.86486     -14743.885      100.60819      100.55581      106.44098
     49800   300.89342      0.0498         1.9070522      0.0050721589   0.04.0491         1.8823723      0.0050969674   0.025392459    383.03798      379.8425      -18823.723      100.09194      100.27228      107.39299
     56700   300.05156      0.0567         2.2608087     -0.012874601    0.017371379    104.59982      113.86889     -22608.087      99.854236      99.923.10058     -22116.436      99.90123       99.910465      108.09932
     72900   299.79726      0.0729         3.0340314     -0.0091806995   0.015530659    301.93614      253.41827     -30340.314      99.259991      99-9.5664733     -30119.828      98.969717      99.578575      109.75766
     9130-0.0037741617   0.98661867    -95.266592      25.809845     -22241.065      105.79455      91.258905      111.78452
     93800   300.9349.211979      111.88689
    107600   299.59398      0.1076         3.1336802      0.0030291916   0.077045023    224.73922      204.70139     -31336.802      105.12669      90.783531      113.3814.341      105.06499      90.866384      113.30979
    110000   299.7190.773452      113.54523
    121300   301.10502      0.1213         3.9592271     -0.027891433    0              44.657107     -148.0361      -39592.271      104.59779      90.3848590.1221         4.0119217     -0.030790128    0.011608146   -323.38468     -144.85919     -40119.217      104.5383       90.390618      114.86576
    123800   301.41055      0.1238         4.0995228     -0.031392035    0              21.601488     -122.19563     -40995.228      104.50139      90.308165      115.0329.58       104.57206      90.297861      114.96813
Fix halt condition for fix-id halt_peak_fix met on step 132300 with value 1
Loop time of 885.456 on 1 procs for 132300 steps with 62500 atoms

      Device Time Info (average):
Data Transfer:   213.2971 s.
Neighbor copy:   0.0566 s.
Neighbor build:  0.3222 s.
Force calc:      130.1472 s.
Device Overhead: 4.3221 s.
CPU Neighbor:    0.6288 s.
CPU Cast/Pack:   73.0840 s.
CPU Driver_Time: 3.8114 s.
CPU Idle_Time:   278.5224 s.
Average split:   1.0000.
Max Mem / Proc:  99.11 MB.
Prefetch mode:   None.
Vector width:    32.
Lanes / atom:    4.
Pair block:      256.
Neigh block:     128.
Neigh mode:      Hybrid (binning on host) with subgroup support.
Neigh sorting:   Unavailable or disabled.

            |       |  2.00
