LAMMPS (11 Feb 2026 - Development - b75dfcc)
package gpu 1
units metal
boundary p p p
atom_style atomic
timestep 0.002
read_data data.crystal
Reading data file ...
  orthogonal box = (0 0 0) to (49.08 49.08 49.08)
  reading atoms ...
  6912 atoms
change_box all triclinic
Changing box ...
  triclinic box = (0 0 0) to (49.08 49.08 49.08) with tilt (0 0 0)

pair_style eam
pair_coeff 1 1 Ag_u3.eam
Reading eam potential file Ag_u3.eam with DATE: 2007-06-11

neighbor 2.0 bin
neigh_modify delay 10 check yes

thermo 100
thermo_style custom step temp pe press pxx pyy pzz lx ly lz

print '=== Phase 1: 0K Relaxation ==='
=== Phase 1: 0K Relaxation ===
fix relax all box/relax aniso 0.0 vmax 0.001
minimize 1.0e-8 1.0e-10 10000 100000

CITE-CITE-CITE-CITE-CITE-CITE-CITE-CITE-CITE-CITE-CITE-CITE-CITE

Your simulation uses code contributions which should be cited:

- GPU package (short-range, long-range and three-body potentials): https://doi.org/10.1016/j.cpc.2010.12.021, https://doi.org/10.1016/j.cpc.2011.10.012, https://doi.org/10.1016/j.cpc.2013.08.002, https://doi.org/10.1016/j.commatsci.2014.10.068, https://doi.org/10.1016/j.cpc.2016.10.020, https://doi.org/10.3233/APC200086

@Article{Brown11,
 author = {W. M. Brown and P. Wang and S. J. Plimpton and A. N. Tharrington},
 title = {Implementing Molecular Dynamics on Hybrid High Performance Computers---Short Range Forces},
 journal = {Comput.\ Phys.\ Commun.},
 year =    2011,
 volume =  182,
 pages =   {898--911},
 doi =     {10.1016/j.cpc.2010.12.021}
}

@ArticDone.

Setting up cg style minimization ...
  Unit style    : metal
  Current step  : 0
 (src/min.cpp:222)
Step          Temp          PotEng         Press           Pxx            Pyy            Pzz             Lx             Ly             Lz
0   0             -19699.201     -0.14981409    -0.15034199    -0.14863379    -0.15046649     49.08          49.08          49.08
Loop time of 0.025548 on 1 procs for 2 steps with 6912 atoms

Minimization stats:
  Stopping criterion = linesearch alpha is zero
  Energy initial, next-to-last, final =
  Force two-norm initial, final = 0.019173085 1.1365369
  Force max component initial, final = 0.01110307 0.65658183
  Final line search alpha, max atom move = 5.8099343e-09 3.8146973e-09
  Iterations, force evaluations = 2 41

=== Phase 2: Equilibration at 300.0K ===

      Device Time Info (average):
Data Transfer:   0.0040 s.
Neighbor copy:   0.0000 s.
Neighbor build:  0.0001 s.
Force calc:      0.0069 s.
Device Overhead: 0.0012 s.
CPU Neighbor:    0.0004 s.
CPU Cast/Pack:   0.0034 s.
CPU Driver_Time: 0.0010 s.
CPU Idle_Time:   0.0076 s.
Average split:   1.0000.
Max Mem / Proc:  5.98 MB.
Prefetch mode:   None.
Vector width:    32.
Lanes / atom:    4.
Pair block:      256.
Neigh block:     128.
Neigh mode:      Hybrid (binning on host) with subgroup support.
Neigh sorting:   Unavailable or disabled.

- Using acceleration for eam:
-  with 1 proc(s) per device.
-  with 1 thread(s) per proc.
-  Horizontal vector operations: ENABLED
-  Shared memory system: No
Device 0: NVIDIA RTX A4000, 48 CUs, 16/16 GB, 1.6 GHZ (Mixed Precision)

Initializing Device and compiling on process 0...Done.
Initializing Device 0 on core 0...Done.

Setting up Verlet run ...
  Unit style    : metal
  Current step  : 0
  Time step     : 0.002
Step          Temp          PotEng         Press           Pxx            Pyy            Pzz             Lx             Ly             Lz
0   300           -19699.202      2430.1211      2493.9052      2395.063       2401.395       49.079857      49.079859      49.079857
Averages over the last 13 of 26 rows, steps 1300 to 2500:
Temp PotEng Press Pxx Pyy Pzz Lx Ly Lz
298.88 -19420.3 55.9172 52.4919 94.0579 21.2019 49.3711 49.3591 49.3771
Loop time of 1.50005 on 1 procs for 2500 steps with 6912 atoms

=== Phase 3: Tension ===

      Device Time Info (average):
Data Transfer:   0.2924 s.
Neighbor copy:   0.0000 s.
Neighbor build:  0.0001 s.
Force calc:      0.3675 s.
Device Overhead: 0.0549 s.
CPU Neighbor:    0.0001 s.
CPU Cast/Pack:   0.18unfix eq

print '=== Phase 3: Tension ==='
=== Phase 3: Tension ===
reset_timestep 0

# 初期z寸法の記録
variable tmp equal lz
variable lz0 equal 49.4282398595223
variable tmp delete

# z軸変形 + x,yゼロ圧力（Poisson収縮を許容）
fix deform_fix all deform 1 z erate 0.0005 remap x
fix npt_fix all npt temp 300.0 300.0 0.1 x 0.0 0.0 1.0 y 0.0 0.0 1.0 xy 0.0 0.0 1.0 xz 0.0 0.0 1.0 yz 0.0 0.0 1.0

# ひずみ・応力（sigma = -P [GPa]）
variable strain equal (lz-v_lz0)/v_lz0
variable stress equal -pzz/10000

# 欠陥解析用compute
# stress/atom: 単位は bar*Å³（実応力はボロノイ体積で割る必要あり）
compute peratom all stress/atom NULL
compute cna all cna/atom 3.493
compute csym all centro/atom fcc

thermo 100
thermo_style custom step temp v_strain v_stress pxx pyy pzz lx ly lz

dump 1 allDone.

Setting up Verlet run ...
  Unit style    : metal
  Current step  : 0
  Time step     : 0.002
Step          Temp         v_strain       v_stress    v_stress_drop  v_drop_from_peak      Pxx            Pyy            Pzz             Lx             Ly             Lz
0   295.55824     -5.7500954e-16  0.12008933    -9.7144515e-17  0             -839.47419     -624.3619      -1200.8933      49.369462      49.364216      49.42824
Averages over the last 6 of 12 rows, steps 600 to 1100:
Temp v_strain v_stress v_stress_drop v_drop_from_peak Pxx Pyy Pzz Lx Ly Lz
300.565 0.00085 0.046809 0.0417142 0.0925357 567.03 465.885 -468.09 49.3106 49.3191 49.4703
     14900   303.66393      0.0149         0.76770385     0.0021073-8409.534       49.057309      49.028634      50.19932
     19700   303.40072      0.0197         1.0224653      0.043118061    0.086066003    462.22226      383.00.12307156     0             -826.5137      -686.06726     -10935.215      49.018069      48.971493      50.367376
     21800   299.54726      0.0218         1.1668603     -0.016625172    0.0039690198   501.00291     -222.63629     -11668.603      48.8853326.08841      0.0226         1.2138209     -0.042520928    0.0072850751  -57.312529     -20.571635     -12138.209      48.945486      48.880462      50.545318
     38000   298.36091      0.038          2.1203613     -0.022201598    0.047760265   -911.65647     -169.51637     -21203.613      48.7347302.48103      0.0388         2.1298396     -0.013703736    0.038281955    54.401255      296.38025     -21298.396      48.630294      48.632289      51.346056
     40500   301.8542       0.0405         2.2669396     -0.095439066    0             -482.50514     -423.94501     -22669.396      48.620336      48.608917.7897     -21309.525      48.63791       48.553127      51.395484
     49800   300.57531      0.0498         2.8317867     -0.035313629    0.0079.0491         2.7521326     -0.025137173    0.012420179   -356.28289     -468.1404      -27521.326      48.447376      48.509964      51.855166
     56700   298.39102      0.0567         3.1806441     -0.065511247    0              536.25214      580.17421     -31806.441      48.387236      48.292073.923      -30696.832      48.331671      48.353207      52.196221
     82000   297.60092      0.082          4.7052648     -0.02398098     0.0187867237.875516      48.121893      53.515955
Fix halt condition for fix-id halt_peak_fix met on step 93500 with value 1
Loop time of 70.6161 on 1 procs for 93500 steps with 6912 atoms

      Device Time Info (average):
Data Transfer:   11.9597 s.
Neighbor copy:   0.0029 s.
Neighbor build:  0.0123 s.
Force calc:      14.1480 s.
Device Overhead: 1.9747 s.
CPU Neighbor:    0.0209 s.
CPU Cast/Pack:   6.6497 s.
CPU Driver_Time: 1.6750 s.
CPU Idle_Time:   18.5685 s.
Average split:   1.0000.
Max Mem / Proc:  11.04 MB.
Prefetch mode:   None.
Vector width:    32.
Lanes / atom:    4.
Pair block:      256.
Neigh block:     128.
Neigh mode:      Hybrid (binning on host) with subgroup support.
Neigh sorting:   Unavailable or disabled.

      |            |       |  2.16
