LAMMPS (10 Dec 2025)
units metal
boundary p p s
atom_style atomic
timestep 0.002
read_data data.interface
Reading data file ...
  orthogonal box = (0 0 0) to (31.515933 31.225455 64.317107)
  reading atoms ...
  4368 atoms

pair_style eam/alloy
pair_coeff * * /mnt/c/Users/iwash/Documents/Repositories/Lammps/potentials/AlCu.eam.alloy Al Cu
Reading eam/alloy potential file /mnt/c/Users/iwash/Documents/Repositories/Lammps/potentials/AlCu.eam.alloy with DATE: 2008-10-01

neighbor 2.0 bin
neigh_modify delay 10 check yes

thermo 100
thermo_style custom step temp pe press pxx pyy lx ly lz

print '=== Phase 0: Shake (High-T limit) ==='
=== Phase 0: Shake (High-T limit) ===
velocity all create 1000.0 24065 dist gaussian
fix shake all nve/limit 0.1
run 1000
Step          Temp          PotEng         Press           Pxx            Pyy             Lx             Ly             Lz
0   1000          -14769.892      5623.0475     -1334.4236      7483.4703      31.515933      31.225455      60.581391
      1000   586.42856     -14536.365     -2191.5116     -6677.751      -721.1732       31.515933      31.225455      64.183252  Pair    | 1.859      | 2.2177     | 2.6785     |  22.8 | 78.47

=== Phase 1: 0K Relaxation ===
Setting up cg style minimization ...
  Unit style    : metal
  Current step  : 1000
 (src/min.cpp:222)
velocity all set 0 0 0

# x,y方向の箱寸法 + 原子位置を同時最適化（z方向はshrink-wrap）
print '=== Phase 1: 0K Relaxation ==='
=== Phase 1: 0K Relaxation ===
fix relax all box/relax x 0.0 y 0.0 vmax 0.001
minimize 1.0e-8 1.0e-10 10000 100000
 (src/min.cpp:222)
Step          Temp          PotEng         Press           Pxx            Pyy             Lx             Ly             Lz
1000   0             -14536.365     -7788.1888     -12147.503     -6069.2778      31.515933      31.225455      64.19293
      1200 Loop time of 1.75227 on 4 procs for 460 steps with 4368 atoms

Minimization stats:
  Stopping criterion = linesearch alpha is zero
  Energy initial, next-to-last, final =
  Force two-norm initial, final = 538.48349 33.240461
  Force max component initial, final = 478.89171 16.290279
  Final line search alpha, max atom move = 7.3178175e-12 1.1920929e-10
  Iterations, force evaluations = 460 543

=== Phase 2: Annealing at 600.0K for 10.0ps ===
Setting up Verlet run ...
  Unit style    : metal
  Current step  : 0
  Time step     : 0.002
Step          Temp          PotEng         Press           Pxx            Pyy             Lx             Ly             Lz
0   600           -14755.823      3997.907       6353.7248      6207.3595      30.8553        30.999087      64.087058
       100   449.39419     -14612.0unfix relax

# 界面近傍の原子配置を緩和（ミスフィット軽減）
print '=== Phase 2: Annealing at 600.0K for 10.0ps ==='
=== Phase 2: Annealing at 600.0K for 10.0ps ===
reset_timestep 0
velocity all create 600.0 24065 dist gaussian
fix ann all npt temp 600.0 600.0 0.1 x 0.0 0.0 1.0 y 0.0 0.0 1.0
run 5000
Step          Temp          PotEng         Press           Pxx            Pyy             Lx             Ly             Lz
0   600           -14755.823      3997.907       6353.7248      6207.3595      30.8553        30.999087      64.087058
Averages over the last 11 of 21 rows, steps 1000 to 2000:
Temp PotEng Press Pxx Pyy Lx Ly Lz
597.804 -14523.8 8.27198 51.5973 -5.70216 30.9425 31.6506 65.1414
      4800   599.05349     -14539.189      379.32711 Pair    | 9.378      | 11.563     | 13.69      |  57.9 | 77.51

=== Phase 2b: Cooling 600.0K -> 300.0K ===
Setting up Verlet run ...
  Unit style    : metal
  Current step  : 5000
  Time step     : 0.002
Step          Temp          PotEng         Press           Pxx            Pyy             Lx             Ly             Lz
5000   601.38677     -14534.775     -196.73346     -1146.5793     -117.04442      30.861465      31.607749      64.90047
      5200   576.80899     -14543.258      2536.3688      2339.6268      1248.2923    unfix ann

print '=== Phase 2b: Cooling 600.0K -> 300.0K ==='
=== Phase 2b: Cooling 600.0K -> 300.0K ===
fix cool all npt temp 600.0 300.0 0.1 x 0.0 0.0 1.0 y 0.0 0.0 1.0
run 5000
Step          Temp          PotEng         Press           Pxx            Pyy             Lx             Ly             Lz
5000   601.38677     -14534.775     -196.73346     -1146.5793     -117.04442      30.861465      31.607749      64.90047
Averages over the last 11 of 22 rows, steps 6100 to 7100:
Temp PotEng Press Pxx Pyy Lx Ly Lz
501.865 -14599.4 191.643 95.1206 19.191 30.8388 31.4674 65.0818
Loop time of 15.3067 on 4 procs for 5000 steps with 4368 atoms

=== Phase 3: Define Grips ===
504 atoms in group bottom
241 atoms in group top
3623 atoms in group mobile
Bottom grip: 504 atoms
Top grip:    241 atoms
Mobile:      3623 atoms
=== Phase 4: Equilibration with Grips ===
Setting up Verlet run ...
  Unit style    : metal
  Current step  : 0
  Time step     : 0.002
Step          Temp          PotEng         Press           Pxx            Pyy             Lx             Ly             Lz
0   255.59838     -14736.77      -47.255674      599.10758      1001.2393      30.669658      31.258954      64.737346
       100   266.62573     -14718.787      614.57293      2040.6113      363.6381     unfix cool

# 焼きなまし後の座標を基準にグリップ領域を定義
print '=== Phase 3: Define Grips ==='
=== Phase 3: Define Grips ===
variable zmin equal bound(all,zmin)
variable zmax equal bound(all,zmax)
variable grip_thick equal 5.0
variable zlo_grip equal 1.23855568340233+5
variable zhi_grip equal 65.9630385133849-5

region rgn_bot block INF INF INF INF INF 6.23855568340233
region rgn_top block INF INF INF INF 60.9630385133849 INF
group bottom region rgn_bot
504 atoms in group bottom
group top region rgn_top
241 atoms in group top
group mobile subtract all bottom top
3623 atoms in group mobile

print 'Bottom grip: $(count(bottom)) atoms'
Bottom grip: 504 atoms
print 'Top grip:    $(count(top)) atoms'
Top grip:    241 atoms
print 'Mobile:      $(count(mobile)) atoms'
Mobile:      3623 atoms

print '=== Phase 4: Equilibration with Grips ==='
=== Phase 4: Equilibration with Grips ===
reset_timestep 0
velocity bottom set 0.0 0.0 0.0
velocity top set 0.0 0.0 0.0
# グリップ: nve（時間積分）+ setforce 0（力ゼロ）→ 等速運動
fix nve_bot bottom nve
fix nve_top top nve
fix freeze_bot bottom setforce 0.0 0.0 0.0
fix freeze_top top setforce 0.0 0.0 0.0
fix eq mobile npt temp 300.0 300.0 0.1 x 0.0 0.0 1.0 y 0.0 0.0 1.0
run 5000
Step          Temp          PotEng         Press           Pxx            Pyy             Lx             Ly             Lz
0   255.59838     -14736.77      -47.255674      599.10758      1001.2393      30.669658      31.258954      64.737346
Loop time of 14.0916 on 4 procs for 5000 steps with 4368 atoms

=== Phase 5: Tensile Test ===
Initial grip distance L0 = 59.2703020898179 Ang
Pull velocity = 0.118540604179636 Ang/ps (erate=0.002/ps)
Setting up Verlet run ...
  Unit style    : metal
  Current step  : 0
  Time step     : 0.002
Step          Temp         v_strain     v_stress_zz        Pxx            Pyy             Lx             Ly           v_Lmat
0   295.88281      0              0.0035042095   1622.2837      500.97297      30.679671      31.340696      59.270302
Averages over the last 6 of 11 rows, steps 500 to 1000:
Temp v_strain v_stress_zz Pxx Pyy Lx Ly v_Lmat
248.683 0.003 0.67653 -3663.15 -4326.46 30.6797 31.3407 59.4481
      1100   250.26015      0.0044         0.82469909    -3636.7475     -5191.0371      30.679671      31.340696      unfix eq

print '=== Phase 5: Tensile Test ==='
=== Phase 5: Tensile Test ===
reset_timestep 0

# グリップ重心間距離で初期材料長を定義
variable zcm_bot equal xcm(bottom,z)
variable zcm_top equal xcm(top,z)
variable tmp_L equal v_zcm_top-v_zcm_bot
variable L0 equal 59.2703020898179
Initial grip distance L0 = 59.2703020898179 Ang

# 引っ張り速度 = erate × L0
variable vpull equal 0.002*v_L0
velocity top set 0.0      1600   250.81516      0.0064         1.0603509     -6020.095      -5864.9713      30.679671      31.340696      59.649632
      4200   247.80991      0.0168         2.1939337     -11142.051     -11286.413      30.679671      31.340696      60.2.0603509     -6020.095      -5864.9713      30.679671      31.340696      59.649632
     26000   249.4-7175.4325      30.679671      31.340696      64.794294
     29100   247.072856.2837      30.679671      31.340696      65.529246
     38400   252.07573      0.153630.679671      31.340696      67.734101
Fix halt condition for fix-id halt_frac met on step 43600 with value 1
Loop time of 121.589 on 4 procs for 43600 steps with 4368 atoms

Fix halt condition for fix-id halt_frac met on step 43600 with value 1
Loop time of 121.589 on 4 procs for 43600 steps with 4368 atoms
