LAMMPS (10 Dec 2025)
units metal
boundary p p s
atom_style atomic
timestep 0.002
read_data data.interface
Reading data file ...
  orthogonal box = (0 0 0) to (31.066736 31.066736 63.73)
  reading atoms ...
  4263 atoms

pair_style eam/alloy
pair_coeff * * /mnt/c/Users/iwash/Documents/Repositories/Lammps/potentials/AlCu.eam.alloy Al Cu
Reading eam/alloy potential file /mnt/c/Users/iwash/Documents/Repositories/Lammps/potentials/AlCu.eam.alloy with DATE: 2008-10-01

neighbor 2.0 bin
neigh_modify delay 10 check yes

thermo 100
thermo_style custom step temp pe press pxx pyy lx ly lz

print '=== Phase 0: Shake (High-T limit) ==='
=== Phase 0: Shake (High-T limit) ===
velocity all create 1000.0 43034 dist gaussian
fix shake all nve/limit 0.1
run 1000
Step          Temp          PotEng         Press           Pxx            Pyy             Lx             Ly             Lz
0   1000          -14433.067      7374.4192      6643.4131      6219.8875      31.066736      31.066736      60.00564

=== Phase 1: 0K Relaxation ===
Setting up cg style minimization ...
  Unit style    : metal
  Current step  : 1000
 (src/min.cpp:222)
velocity all set 0 0 0

# x,y方向の箱寸法 + 原子位置を同時最適化（z方向はshrink-wrap）
print '=== Phase 1: 0K Relaxation ==='
=== Phase 1: 0K Relaxation ===
fix relax all box/relax x 0.0 y 0.0 vmax 0.001
minimize 1.0e-8 1.0e-10 10000 100000
 (src/min.cpp:222)
Step          Temp          PotEng         Press           Pxx            Pyy             Lx             Ly             Lz
1000   0             -14208.927     -618.49475     -845.98618     -15.863143      31.066736      31.066736      62.660435
      1100 Loop time of 1.39094 on 4 procs for 378 steps with 4263 atoms

Minimization stats:
  Stopping criterion = linesearch alpha is zero
  Energy initial, next-to-last, final =
  Force two-norm initial, final = 67.093488 14.828309
  Force max component initial, final = 32.066269 8.8349968
  Final line search alpha, max atom move = 3.3265576e-11 2.9390126e-10
  Iterations, force evaluations = 378 463

=== Phase 2: Annealing at 600.0K for 10.0ps ===
Setting up Verlet run ...
  Unit style    : metal
  Current step  : 0
  Time step     : 0.002
Step          Temp          PotEng         Press           Pxx            Pyy             Lx             Ly             Lz
0   600           -14489.448      4039.897       6225.2749      6202.2551      30.610497      30.644595      62.405034
       100   388.27888     -14316.4unfix relax

# 界面近傍の原子配置を緩和（ミスフィット軽減）
print '=== Phase 2: Annealing at 600.0K for 10.0ps ==='
=== Phase 2: Annealing at 600.0K for 10.0ps ===
reset_timestep 0
velocity all create 600.0 43034 dist gaussian
fix ann all npt temp 600.0 600.0 0.1 x 0.0 0.0 1.0 y 0.0 0.0 1.0
run 5000
Step          Temp          PotEng         Press           Pxx            Pyy             Lx             Ly             Lz
0   600           -14489.448      4039.897       6225.2749      6202.2551      30.610497      30.644595      62.405034
Averages over the last 11 of 21 rows, steps 1000 to 2000:
Temp PotEng Press Pxx Pyy Lx Ly Lz
600.041 -14181.1 -21.8354 64.1196 -44.5357 31.1474 31.1599 63.7361
      4800   605.22564     -14186.804      1315.9671 Pair    | 8.3474     | 10.38      | 12.256     |  56.2 | 78.56

=== Phase 2b: Cooling 600.0K -> 300.0K ===
Setting up Verlet run ...
  Unit style    : metal
  Current step  : 5000
  Time step     : 0.002
Step          Temp          PotEng         Press           Pxx            Pyy             Lx             Ly             Lz
5000   590.23072     -14188.224      370.62284     -905.1415       1021.1801      31.094675      31.131261      64.12665
      5200   605.60463     -14190.211     -289.56566     -116.45505     -420.93727    unfix ann

print '=== Phase 2b: Cooling 600.0K -> 300.0K ==='
=== Phase 2b: Cooling 600.0K -> 300.0K ===
fix cool all npt temp 600.0 300.0 0.1 x 0.0 0.0 1.0 y 0.0 0.0 1.0
run 5000
Step          Temp          PotEng         Press           Pxx            Pyy             Lx             Ly             Lz
5000   590.23072     -14188.224      370.62284     -905.1415       1021.1801      31.094675      31.131261      64.12665
Averages over the last 11 of 22 rows, steps 6100 to 7100:
Temp PotEng Press Pxx Pyy Lx Ly Lz
505.428 -14251.4 235.684 237.94 -68.9676 31.0207 31.1508 63.6287
      9900   305.72051     -14375.859     -153.36315      1604.1802   Output  | 0.0011235  | 0.0014627  | 0.0024411  |   1.5 |  0.01

=== Phase 3: Define Grips ===
432 atoms in group bottom
242 atoms in group top
3589 atoms in group mobile
Bottom grip: 432 atoms
Top grip:    242 atoms
Mobile:      3589 atoms
=== Phase 4: Equilibration with Grips ===
Setting up Verlet run ...
  Unit style    : metal
  Current step  : 0
  Time step     : 0.002
Step          Temp          PotEng         Press           Pxx            Pyy             Lx             Ly             Lz
0   257.5054      -14383.831     -1629.9436     -2480.0062     -651.3368       30.949278      31.009281      62.885647
       100   275.14276     -14371.256     -803.50416     -174.22639     -1835.4643    unfix cool

# 焼きなまし後の座標を基準にグリップ領域を定義
print '=== Phase 3: Define Grips ==='
=== Phase 3: Define Grips ===
variable zmin equal bound(all,zmin)
variable zmax equal bound(all,zmax)
variable grip_thick equal 5.0
variable zlo_grip equal 1.6285695984719+5
variable zhi_grip equal 64.5014706919102-5

region rgn_bot block INF INF INF INF INF 6.6285695984719
region rgn_top block INF INF INF INF 59.5014706919102 INF
group bottom region rgn_bot
432 atoms in group bottom
group top region rgn_top
242 atoms in group top
group mobile subtract all bottom top
3589 atoms in group mobile

print 'Bottom grip: $(count(bottom)) atoms'
Bottom grip: 432 atoms
print 'Top grip:    $(count(top)) atoms'
Top grip:    242 atoms
print 'Mobile:      $(count(mobile)) atoms'
Mobile:      3589 atoms

print '=== Phase 4: Equilibration with Grips ==='
=== Phase 4: Equilibration with Grips ===
reset_timestep 0
velocity bottom set 0.0 0.0 0.0
velocity top set 0.0 0.0 0.0
# グリップ: nve（時間積分）+ setforce 0（力ゼロ）→ 等速運動
fix nve_bot bottom nve
fix nve_top top nve
fix freeze_bot bottom setforce 0.0 0.0 0.0
fix freeze_top top setforce 0.0 0.0 0.0
fix eq mobile npt temp 300.0 300.0 0.1 x 0.0 0.0 1.0 y 0.0 0.0 1.0
run 5000
Step          Temp          PotEng         Press           Pxx            Pyy             Lx             Ly             Lz
0   257.5054      -14383.831     -1629.9436     -2480.0062     -651.3368       30.949278      31.009281      62.885647
Loop time of 13.1327 on 4 procs for 5000 steps with 4263 atoms

=== Phase 5: Tensile Test ===
Initial grip distance L0 = 57.9899654584373 Ang
Pull velocity = 0.115979930916875 Ang/ps (erate=0.002/ps)
Setting up Verlet run ...
  Unit style    : metal
  Current step  : 0
  Time step     : 0.002
Step          Temp         v_strain     v_stress_zz        Pxx            Pyy             Lx             Ly           v_Lmat
0   296.35323     -6.1264283e-16 -0.12708812     834.2161      -28.377536      30.925911      31.058709      57.989965
Averages over the last 6 of 11 rows, steps 500 to 1000:
Temp v_strain v_stress_zz Pxx Pyy Lx Ly v_Lmat
255.699 0.003 0.554093 -4254.91 -4808.34 30.9259 31.0587 58.1639
      1100   254.99019      0.0044         0.71532363    -5172.9177     -5658.9366      30.925911      31.058709   unfix eq

print '=== Phase 5: Tensile Test ==='
=== Phase 5: Tensile Test ===
reset_timestep 0

# グリップ重心間距離で初期材料長を定義
variable zcm_bot equal xcm(bottom,z)
variable zcm_top equal xcm(top,z)
variable tmp_L equal v_zcm_top-v_zcm_bot
variable L0 equal 57.9899654584373
Initial grip distance L0 = 57.9899654584373 Ang

# 引っ張り速度 = erate × L0
variable vpull equal 0.002*v_L0
velocity top set 0.0 0.      1600   250.34844      0.0064         0.83506646    -6661.0229     -6992.1593      30.925911      31.058709      58.361101
     26000   25-12665.652      30.925911      31.058709      63.39463
     29100   250.945.4462      30.925911      31.058709      64.113706
     38400   246.78864      0.130.925911      31.058709      66.270933
     50800   249.64581      0.2032         0.841.058709      69.147235
Fix halt condition for fix-id halt_frac met on step 56800 with value 1
Loop time of 152.591 on 4 procs for 56800 steps with 4263 atoms

     54700   Output  | 1.7709     | 2.1912     | 2.6122     |  20.7 |  1.44

Fix halt condition for fix-id halt_frac met on step 56800 with value 1
Loop time of 152.591 on 4 procs for 56800 steps with 4263 atoms
