LAMMPS (10 Dec 2025)
units metal
boundary p p s
atom_style atomic
timestep 0.002
read_data data.interface
Reading data file ...
  orthogonal box = (0 0 0) to (31.066736 31.066736 124.79)
  reading atoms ...
  8526 atoms

pair_style eam/alloy
pair_coeff * * /mnt/c/Users/iwash/Documents/Repositories/Lammps/potentials/AlCu.eam.alloy Al Cu
Reading eam/alloy potential file /mnt/c/Users/iwash/Documents/Repositories/Lammps/potentials/AlCu.eam.alloy with DATE: 2008-10-01

neighbor 2.0 bin
neigh_modify delay 10 check yes

thermo 100
thermo_style custom step temp pe press pxx pyy lx ly lz

print '=== Phase 0: Shake (High-T limit) ==='
=== Phase 0: Shake (High-T limit) ===
velocity all create 1000.0 2170 dist gaussian
fix shake all nve/limit 0.1
run 1000
Step          Temp          PotEng         Press           Pxx            Pyy             Lx             Ly             Lz
0   1000          -28982.994      11112.372      10591.644      10504.288      31.066736      31.066736      121.10325
      1000   551.63441     -28487.679     -9821.1379     -7535.6169     -7670.4272      31.066736      31.066736      128.1041   Pair    | 3.4443     | 4.0073     | 4.6257     |  27.5 | 82.31

=== Phase 1: 0K Relaxation ===
Setting up cg style minimization ...
  Unit style    : metal
  Current step  : 1000
 (src/min.cpp:222)
velocity all set 0 0 0

# x,y方向の箱寸法 + 原子位置を同時最適化（z方向はshrink-wrap）
print '=== Phase 1: 0K Relaxation ==='
=== Phase 1: 0K Relaxation ===
fix relax all box/relax x 0.0 y 0.0 vmax 0.001
minimize 1.0e-8 1.0e-10 10000 100000
 (src/min.cpp:222)
Step          Temp          PotEng         Press           Pxx            Pyy             Lx             Ly             Lz
1000   0             -28487.679     -15058.489     -12562.237     -12717.846      31.066736      31.066736      128.22362
      1100  Loop time of 2.70271 on 4 procs for 393 steps with 8526 atoms

Minimization stats:
  Stopping criterion = linesearch alpha is zero
  Energy initial, next-to-last, final =
  Force two-norm initial, final = 1381.6985 45.907953
  Force max component initial, final = 981.42589 27.989018
  Final line search alpha, max atom move = 3.6859429e-12 1.0316592e-10
  Iterations, force evaluations = 393 491

=== Phase 2: Annealing at 600.0K for 10.0ps ===
Setting up Verlet run ...
  Unit style    : metal
  Current step  : 0
  Time step     : 0.002
Step          Temp          PotEng         Press           Pxx            Pyy             Lx             Ly             Lz
0   600           -28918.573      1157.8962      6354.5998      6170.1298      30.556171      30.546975      128.11281
       100   424.85877     -28625.unfix relax

# 界面近傍の原子配置を緩和（ミスフィット軽減）
print '=== Phase 2: Annealing at 600.0K for 10.0ps ==='
=== Phase 2: Annealing at 600.0K for 10.0ps ===
reset_timestep 0
velocity all create 600.0 2170 dist gaussian
fix ann all npt temp 600.0 600.0 0.1 x 0.0 0.0 1.0 y 0.0 0.0 1.0
run 5000
Step          Temp          PotEng         Press           Pxx            Pyy             Lx             Ly             Lz
0   600           -28918.573      1157.8962      6354.5998      6170.1298      30.556171      30.546975      128.11281
Averages over the last 11 of 21 rows, steps 1000 to 2000:
Temp PotEng Press Pxx Pyy Lx Ly Lz
600.094 -28465.7 652.077 -105.343 -84.533 31.3324 31.3776 126.068
      4800   590.69309     -28455.444     -123.18225      1043.9038      1506.1034      31.119881      31.111036      Neigh   | 0.33318    | 0.55437    | 0.76324    |  25.3 |  2.14

=== Phase 2b: Cooling 600.0K -> 300.0K ===
Setting up Verlet run ...
  Unit style    : metal
  Current step  : 5000
  Time step     : 0.002
Step          Temp          PotEng         Press           Pxx            Pyy             Lx             Ly             Lz
5000   605.69616     -28450.5       -1369.522      -643.38385      116.81966      31.125996      31.12538       127.36717
      5200   589.94342     -28465.134     -1538.3722     -610.23463     -318.63559  unfix ann

print '=== Phase 2b: Cooling 600.0K -> 300.0K ==='
=== Phase 2b: Cooling 600.0K -> 300.0K ===
fix cool all npt temp 600.0 300.0 0.1 x 0.0 0.0 1.0 y 0.0 0.0 1.0
run 5000
Step          Temp          PotEng         Press           Pxx            Pyy             Lx             Ly             Lz
5000   605.69616     -28450.5       -1369.522      -643.38385      116.81966      31.125996      31.12538       127.36717
Averages over the last 11 of 22 rows, steps 6100 to 7100:
Temp PotEng Press Pxx Pyy Lx Ly Lz
507.169 -28592.1 -11.0826 -17.4152 43.767 31.2272 31.23 126.3
      990Comm    | 0.54624    | 3.7571     | 6.9613     | 155.7 | 15.07

=== Phase 3: Define Grips ===
432 atoms in group bottom
242 atoms in group top
7852 atoms in group mobile
Bottom grip: 432 atoms
Top grip:    242 atoms
Mobile:      7852 atoms
=== Phase 4: Equilibration with Grips ===
Setting up Verlet run ...
  Unit style    : metal
  Current step  : 0
  Time step     : 0.002
Step          Temp          PotEng         Press           Pxx            Pyy             Lx             Ly             Lz
0   279.40809     -28849.812     -1348.457      -666.16351     -496.924        31.07119       31.045125      125.51403
       100   288.01898     -28834.163     -1173.9264     -93.279729     -720.14627  unfix cool

# 焼きなまし後の座標を基準にグリップ領域を定義
print '=== Phase 3: Define Grips ==='
=== Phase 3: Define Grips ===
variable zmin equal bound(all,zmin)
variable zmax equal bound(all,zmax)
variable grip_thick equal 5.0
variable zlo_grip equal 1.59370462024723+5
variable zhi_grip equal 127.082771749328-5

region rgn_bot block INF INF INF INF INF 6.59370462024723
region rgn_top block INF INF INF INF 122.082771749328 INF
group bottom region rgn_bot
432 atoms in group bottom
group top region rgn_top
242 atoms in group top
group mobile subtract all bottom top
7852 atoms in group mobile

print 'Bottom grip: $(count(bottom)) atoms'
Bottom grip: 432 atoms
print 'Top grip:    $(count(top)) atoms'
Top grip:    242 atoms
print 'Mobile:      $(count(mobile)) atoms'
Mobile:      7852 atoms

print '=== Phase 4: Equilibration with Grips ==='
=== Phase 4: Equilibration with Grips ===
reset_timestep 0
velocity bottom set 0.0 0.0 0.0
velocity top set 0.0 0.0 0.0
# グリップ: nve（時間積分）+ setforce 0（力ゼロ）→ 等速運動
fix nve_bot bottom nve
fix nve_top top nve
fix freeze_bot bottom setforce 0.0 0.0 0.0
fix freeze_top top setforce 0.0 0.0 0.0
fix eq mobile npt temp 300.0 300.0 0.1 x 0.0 0.0 1.0 y 0.0 0.0 1.0
run 5000
Step          Temp          PotEng         Press           Pxx            Pyy             Lx             Ly             Lz
0   279.40809     -28849.812     -1348.457      -666.16351     -496.924        31.07119       31.045125      125.51403
Loop time of 25.1613 on 4 procs for 5000 steps with 8526 atoms

=== Phase 5: Tensile Test ===
Initial grip distance L0 = 120.361518625677 Ang
Pull velocity = 0.240723037251354 Ang/ps (erate=0.002/ps)
Setting up Verlet run ...
  Unit style    : metal
  Current step  : 0
  Time step     : 0.002
Step          Temp         v_strain     v_stress_zz        Pxx            Pyy             Lx             Ly           v_Lmat
0   299.52717     -2.3613618e-15  0.24565514    -679.93268      375.28009      31.101722      31.05307       120.36152
Averages over the last 6 of 11 rows, steps 500 to 1000:
Temp v_strain v_stress_zz Pxx Pyy Lx Ly v_Lmat
275.216 0.003 0.710832 -4845.14 -3563.5 31.1017 31.0531 120.723
      1100   276.07628      0.0044         0.90251718    -6342.484      -4660.0066      31.101722      31.05307     unfix eq

print '=== Phase 5: Tensile Test ==='
=== Phase 5: Tensile Test ===
reset_timestep 0

# グリップ重心間距離で初期材料長を定義
variable zcm_bot equal xcm(bottom,z)
variable zcm_top equal xcm(top,z)
variable tmp_L equal v_zcm_top-v_zcm_bot
variable L0 equal 120.361518625677
Initial grip distance L0 = 120.361518625677 Ang

# 引っ張り速度 = erate × L0
variable vpull equal 0.002*v_L0
velocity top set 0.0 0      1600   277.08934      0.0064         1.1509012     -7857.7999     -6581.8218      31.101722      31.05307       121.13183
Fix halt condition for fix-id halt_frac met on step 19100 with value 1
Loop time of 91.4638 on 4 procs for 19100 steps with 8526 atoms

Fix halt condition for fix-id halt_frac met on step 19100 with value 1
Loop time of 91.4638 on 4 procs for 19100 steps with 8526 atoms
