LAMMPS (10 Dec 2025)
units metal
boundary p p s
atom_style atomic
timestep 0.002
read_data data.interface
Reading data file ...
  orthogonal box = (0 0 0) to (28.615 31.066736 64.493363)
  reading atoms ...
  3921 atoms

pair_style eam/alloy
pair_coeff * * /mnt/c/Users/iwash/Documents/Repositories/Lammps/potentials/AlCu.eam.alloy Al Cu
Reading eam/alloy potential file /mnt/c/Users/iwash/Documents/Repositories/Lammps/potentials/AlCu.eam.alloy with DATE: 2008-10-01

neighbor 2.0 bin
neigh_modify delay 10 check yes

thermo 100
thermo_style custom step temp pe press pxx pyy lx ly lz

print '=== Phase 0: Shake (High-T limit) ==='
=== Phase 0: Shake (High-T limit) ===
velocity all create 1000.0 33778 dist gaussian
fix shake all nve/limit 0.1
run 1000
Step          Temp          PotEng         Press           Pxx            Pyy             Lx             Ly             Lz
0   1000          -13240.617      12479.43       12262.001      10593.789      28.615         31.066736      60.762918
      1000   637.76003     -13057.418      7501.0878      8777.7959      16851.356      28.615         31.066736      63.044641 Pair    | 1.5869     | 1.9217     | 2.2325     |  21.0 | 81.14

=== Phase 1: 0K Relaxation ===
Setting up cg style minimization ...
  Unit style    : metal
  Current step  : 1000
 (src/min.cpp:222)
velocity all set 0 0 0

# x,y方向の箱寸法 + 原子位置を同時最適化（z方向はshrink-wrap）
print '=== Phase 1: 0K Relaxation ==='
=== Phase 1: 0K Relaxation ===
fix relax all box/relax x 0.0 y 0.0 vmax 0.001
minimize 1.0e-8 1.0e-10 10000 100000
 (src/min.cpp:222)
Step          Temp          PotEng         Press           Pxx            Pyy             Lx             Ly             Lz
1000   0             -13057.418      1342.3809      2907.2163      10511.841      28.615         31.066736      63.044641
      1200 Loop time of 1.56905 on 4 procs for 465 steps with 3921 atoms

Minimization stats:
  Stopping criterion = linesearch alpha is zero
  Energy initial, next-to-last, final =
  Force two-norm initial, final = 385.92438 27.716533
  Force max component initial, final = 367.71047 13.870058
  Final line search alpha, max atom move = 8.5947218e-12 1.1920929e-10
  Iterations, force evaluations = 465 592

=== Phase 2: Annealing at 600.0K for 10.0ps ===
Setting up Verlet run ...
  Unit style    : metal
  Current step  : 0
  Time step     : 0.002
Step          Temp          PotEng         Press           Pxx            Pyy             Lx             Ly             Lz
0   600           -13264.023      1278.8981      6211.4064      6075.746       27.993365      31.209499      62.933061
       100   447.5051      -13132.9unfix relax

# 界面近傍の原子配置を緩和（ミスフィット軽減）
print '=== Phase 2: Annealing at 600.0K for 10.0ps ==='
=== Phase 2: Annealing at 600.0K for 10.0ps ===
reset_timestep 0
velocity all create 600.0 33778 dist gaussian
fix ann all npt temp 600.0 600.0 0.1 x 0.0 0.0 1.0 y 0.0 0.0 1.0
run 5000
Step          Temp          PotEng         Press           Pxx            Pyy             Lx             Ly             Lz
0   600           -13264.023      1278.8981      6211.4064      6075.746       27.993365      31.209499      62.933061
Averages over the last 11 of 21 rows, steps 1000 to 2000:
Temp PotEng Press Pxx Pyy Lx Ly Lz
601.262 -13056 -306.149 -176.059 -132.234 29.0456 31.3675 62.5757
Loop time of 12.1506 on 4 procs for 5000 steps with 3921 atoms

=== Phase 2b: Cooling 600.0K -> 300.0K ===
Setting up Verlet run ...
  Unit style    : metal
  Current step  : 5000
  Time step     : 0.002
Step          Temp          PotEng         Press           Pxx            Pyy             Lx             Ly             Lz
5000   594.72047     -13056.46      -490.47372      48.619406     -1093.8555      29.087626      31.381818      62.419556
      5200   582.77945     -13064.971      326.92575      1337.0851      733.58862    unfix ann

print '=== Phase 2b: Cooling 600.0K -> 300.0K ==='
=== Phase 2b: Cooling 600.0K -> 300.0K ===
fix cool all npt temp 600.0 300.0 0.1 x 0.0 0.0 1.0 y 0.0 0.0 1.0
run 5000
Step          Temp          PotEng         Press           Pxx            Pyy             Lx             Ly             Lz
5000   594.72047     -13056.46      -490.47372      48.619406     -1093.8555      29.087626      31.381818      62.419556
Averages over the last 11 of 22 rows, steps 6100 to 7100:
Temp PotEng Press Pxx Pyy Lx Ly Lz
503.882 -13120.6 29.2802 -60.277 34.2897 29.0487 31.2761 62.2141
      9900   305.08756     -13235.036     -5.4710078      107.86602   Output  | 0.001079   | 0.0014078  | 0.0023664  |   1.5 |  0.01

=== Phase 3: Define Grips ===
384 atoms in group bottom
231 atoms in group top
3306 atoms in group mobile
Bottom grip: 384 atoms
Top grip:    231 atoms
Mobile:      3306 atoms
=== Phase 4: Equilibration with Grips ===
Setting up Verlet run ...
  Unit style    : metal
  Current step  : 0
  Time step     : 0.002
Step          Temp          PotEng         Press           Pxx            Pyy             Lx             Ly             Lz
0   255.53653     -13239.407     -169.50387      223.06656     -7.13134        28.817942      31.155696      61.849326
       100   275.12967     -13229.31      -333.74077     -245.14668     -295.29807    unfix cool

# 焼きなまし後の座標を基準にグリップ領域を定義
print '=== Phase 3: Define Grips ==='
=== Phase 3: Define Grips ===
variable zmin equal bound(all,zmin)
variable zmax equal bound(all,zmax)
variable grip_thick equal 5.0
variable zlo_grip equal 1.79896360346859+5
variable zhi_grip equal 63.6353913306513-5

region rgn_bot block INF INF INF INF INF 6.79896360346859
region rgn_top block INF INF INF INF 58.6353913306513 INF
group bottom region rgn_bot
384 atoms in group bottom
group top region rgn_top
231 atoms in group top
group mobile subtract all bottom top
3306 atoms in group mobile

print 'Bottom grip: $(count(bottom)) atoms'
Bottom grip: 384 atoms
print 'Top grip:    $(count(top)) atoms'
Top grip:    231 atoms
print 'Mobile:      $(count(mobile)) atoms'
Mobile:      3306 atoms

print '=== Phase 4: Equilibration with Grips ==='
=== Phase 4: Equilibration with Grips ===
reset_timestep 0
velocity bottom set 0.0 0.0 0.0
velocity top set 0.0 0.0 0.0
# グリップ: nve（時間積分）+ setforce 0（力ゼロ）→ 等速運動
fix nve_bot bottom nve
fix nve_top top nve
fix freeze_bot bottom setforce 0.0 0.0 0.0
fix freeze_top top setforce 0.0 0.0 0.0
fix eq mobile npt temp 300.0 300.0 0.1 x 0.0 0.0 1.0 y 0.0 0.0 1.0
run 5000
Step          Temp          PotEng         Press           Pxx            Pyy             Lx             Ly             Lz
0   255.53653     -13239.407     -169.50387      223.06656     -7.13134        28.817942      31.155696      61.849326
Loop time of 12.1029 on 4 procs for 5000 steps with 3921 atoms

=== Phase 5: Tensile Test ===
Initial grip distance L0 = 56.6644112816134 Ang
Pull velocity = 0.113328822563227 Ang/ps (erate=0.002/ps)
Setting up Verlet run ...
  Unit style    : metal
  Current step  : 0
  Time step     : 0.002
Step          Temp         v_strain     v_stress_zz        Pxx            Pyy             Lx             Ly           v_Lmat
0   297.24876     -1.2539489e-16  0.077628443    665.22268      240.1152       28.867318      31.18206       56.664411
Averages over the last 6 of 11 rows, steps 500 to 1000:
Temp v_strain v_stress_zz Pxx Pyy Lx Ly v_Lmat
251.948 0.003 0.797923 -5229.79 -4285.06 28.8673 31.1821 56.8344
      1100   256.49928      0.0044         0.9157596     -5846.4897     -4777.8315      28.867318      31.18206       unfix eq

print '=== Phase 5: Tensile Test ==='
=== Phase 5: Tensile Test ===
reset_timestep 0

# グリップ重心間距離で初期材料長を定義
variable zcm_bot equal xcm(bottom,z)
variable zcm_top equal xcm(top,z)
variable tmp_L equal v_zcm_top-v_zcm_bot
variable L0 equal 56.6644112816134
Initial grip distance L0 = 56.6644112816134 Ang

# 引っ張り速度 = erate × L0
variable vpull equal 0.002*v_L0
velocity top set 0.0      1600   252.92592      0.0064         1.0581244     -6621.4028     -5219.2118      28.867318      31.18206       57.027064
      4200   256.48432      0.0168         2.2061021     -14142.637     -10114.526      28.867318      31.18206       57.6.0581244     -6621.4028     -5219.2118      28.867318      31.18206       57.027064
     26000   256.1-10304.02       28.867318      31.18206       61.945534
     29100   250.824870.4588      28.867318      31.18206       62.648173
     38400   251.51795      0.153628.867318      31.18206       64.756089
     50800   250.79726      0.2032         0.425471.18206       67.566644
     57000   252.80976      0.228          0.41612405    -      68.971921
Fix halt condition for fix-id halt_frac met on step 59700 with value 1
Loop time of 154.878 on 4 procs for 59700 steps with 3921 atoms

Fix halt condition for fix-id halt_frac met on step 59700 with value 1
Loop time of 154.878 on 4 procs for 59700 steps with 3921 atoms
