LAMMPS (10 Dec 2025)
units metal
boundary p p s
atom_style atomic
timestep 0.002
read_data data.interface
Reading data file ...
  orthogonal box = (0 0 0) to (31.066736 31.225455 64.029283)
  reading atoms ...
  4335 atoms

pair_style eam/alloy
pair_coeff * * /mnt/c/Users/iwash/Documents/Repositories/Lammps/potentials/AlCu.eam.alloy Al Cu
Reading eam/alloy potential file /mnt/c/Users/iwash/Documents/Repositories/Lammps/potentials/AlCu.eam.alloy with DATE: 2008-10-01

neighbor 2.0 bin
neigh_modify delay 10 check yes

thermo 100
thermo_style custom step temp pe press pxx pyy lx ly lz

print '=== Phase 0: Shake (High-T limit) ==='
=== Phase 0: Shake (High-T limit) ===
velocity all create 1000.0 34586 dist gaussian
fix shake all nve/limit 0.1
run 1000
Step          Temp          PotEng         Press           Pxx            Pyy             Lx             Ly             Lz
0   1000          -14704.343      9674.3189      7216.7606      8181.6958      31.066736      31.225455      60.311513
Averages over the last 6 of 11 rows, steps 500 to 1000:
Temp PotEng Press Pxx Pyy Lx Ly Lz
553.171 -14453.5 -8011.31 -4627.18 -5416.88 31.0667 31.2255 64.3314
Loop time of 2.69229 on 4 procs for 1000 steps with 4335 atoms

=== Phase 1: 0K Relaxation ===
Setting up cg style minimization ...
  Unit style    : metal
  Current step  : 1000
 (src/min.cpp:222)
velocity all set 0 0 0

# x,y方向の箱寸法 + 原子位置を同時最適化（z方向はshrink-wrap）
print '=== Phase 1: 0K Relaxation ==='
=== Phase 1: 0K Relaxation ===
fix relax all box/relax x 0.0 y 0.0 vmax 0.001
minimize 1.0e-8 1.0e-10 10000 100000
 (src/min.cpp:222)
Step          Temp          PotEng         Press           Pxx            Pyy             Lx             Ly             Lz
1000   0             -14469.598     -1070.934       213.24133     -2174.5485      31.066736      31.225455      63.235932
      1200 Loop time of 1.90031 on 4 procs for 489 steps with 4335 atoms

Minimization stats:
  Stopping criterion = linesearch alpha is zero
  Energy initial, next-to-last, final =
  Force two-norm initial, final = 101.70597 26.86889
  Force max component initial, final = 83.40875 16.45139
  Final line search alpha, max atom move = 1.4492306e-11 2.3841858e-10
  Iterations, force evaluations = 489 591

=== Phase 2: Annealing at 600.0K for 10.0ps ===
Setting up Verlet run ...
  Unit style    : metal
  Current step  : 0
  Time step     : 0.002
Step          Temp          PotEng         Press           Pxx            Pyy             Lx             Ly             Lz
0   600           -14697.162      3139.8337      6138.3107      6467.7258      30.774235      30.857258      63.04257
       100   435.79217     -14546.4unfix relax

# 界面近傍の原子配置を緩和（ミスフィット軽減）
print '=== Phase 2: Annealing at 600.0K for 10.0ps ==='
=== Phase 2: Annealing at 600.0K for 10.0ps ===
reset_timestep 0
velocity all create 600.0 34586 dist gaussian
fix ann all npt temp 600.0 600.0 0.1 x 0.0 0.0 1.0 y 0.0 0.0 1.0
run 5000
Step          Temp          PotEng         Press           Pxx            Pyy             Lx             Ly             Lz
0   600           -14697.162      3139.8337      6138.3107      6467.7258      30.774235      30.857258      63.04257
Averages over the last 11 of 21 rows, steps 1000 to 2000:
Temp PotEng Press Pxx Pyy Lx Ly Lz
599.041 -14436.4 257.748 306.513 -190.97 31.0766 31.3436 63.8516
Loop time of 13.3027 on 4 procs for 5000 steps with 4335 atoms

=== Phase 2b: Cooling 600.0K -> 300.0K ===
Setting up Verlet run ...
  Unit style    : metal
  Current step  : 5000
  Time step     : 0.002
Step          Temp          PotEng         Press           Pxx            Pyy             Lx             Ly             Lz
5000   601.89899     -14444.56       652.52345      232.82047      1238.2352      31.113357      31.301084      63.431999
      5200   601.91029     -14438.265     -199.90982     -24.274879     -1047.4544    unfix ann

print '=== Phase 2b: Cooling 600.0K -> 300.0K ==='
=== Phase 2b: Cooling 600.0K -> 300.0K ===
fix cool all npt temp 600.0 300.0 0.1 x 0.0 0.0 1.0 y 0.0 0.0 1.0
run 5000
Step          Temp          PotEng         Press           Pxx            Pyy             Lx             Ly             Lz
5000   601.89899     -14444.56       652.52345      232.82047      1238.2352      31.113357      31.301084      63.431999
Averages over the last 11 of 22 rows, steps 6100 to 7100:
Temp PotEng Press Pxx Pyy Lx Ly Lz
505.122 -14507.3 -257.342 -148.893 -261.075 31.1312 31.2602 62.8943
      9Comm    | 0.34258    | 2.0198     | 3.6603     |  95.5 | 15.50

=== Phase 3: Define Grips ===
504 atoms in group bottom
363 atoms in group top
3468 atoms in group mobile
Bottom grip: 504 atoms
Top grip:    363 atoms
Mobile:      3468 atoms
=== Phase 4: Equilibration with Grips ===
Setting up Verlet run ...
  Unit style    : metal
  Current step  : 0
  Time step     : 0.002
Step          Temp          PotEng         Press           Pxx            Pyy             Lx             Ly             Lz
0   240.67527     -14637.86      -1677.8522     -67.51639      -2410.2879      30.978177      31.165816      61.881892
       100   263.84917     -14624.753     -1079.6892     -2033.7069     -215.55251    unfix cool

# 焼きなまし後の座標を基準にグリップ領域を定義
print '=== Phase 3: Define Grips ==='
=== Phase 3: Define Grips ===
variable zmin equal bound(all,zmin)
variable zmax equal bound(all,zmax)
variable grip_thick equal 5.0
variable zlo_grip equal 1.50746660299643+5
variable zhi_grip equal 63.3765531963721-5

region rgn_bot block INF INF INF INF INF 6.50746660299643
region rgn_top block INF INF INF INF 58.3765531963721 INF
group bottom region rgn_bot
504 atoms in group bottom
group top region rgn_top
363 atoms in group top
group mobile subtract all bottom top
3468 atoms in group mobile

print 'Bottom grip: $(count(bottom)) atoms'
Bottom grip: 504 atoms
print 'Top grip:    $(count(top)) atoms'
Top grip:    363 atoms
print 'Mobile:      $(count(mobile)) atoms'
Mobile:      3468 atoms

print '=== Phase 4: Equilibration with Grips ==='
=== Phase 4: Equilibration with Grips ===
reset_timestep 0
velocity bottom set 0.0 0.0 0.0
velocity top set 0.0 0.0 0.0
# グリップ: nve（時間積分）+ setforce 0（力ゼロ）→ 等速運動
fix nve_bot bottom nve
fix nve_top top nve
fix freeze_bot bottom setforce 0.0 0.0 0.0
fix freeze_top top setforce 0.0 0.0 0.0
fix eq mobile npt temp 300.0 300.0 0.1 x 0.0 0.0 1.0 y 0.0 0.0 1.0
run 5000
Step          Temp          PotEng         Press           Pxx            Pyy             Lx             Ly             Lz
0   240.67527     -14637.86      -1677.8522     -67.51639      -2410.2879      30.978177      31.165816      61.881892
Loop time of 12.5442 on 4 procs for 5000 steps with 4335 atoms

=== Phase 5: Tensile Test ===
Initial grip distance L0 = 57.0085934403111 Ang
Pull velocity = 0.114017186880622 Ang/ps (erate=0.002/ps)
Setting up Verlet run ...
  Unit style    : metal
  Current step  : 0
  Time step     : 0.002
Step          Temp         v_strain     v_stress_zz        Pxx            Pyy             Lx             Ly           v_Lmat
0   304.10357     -7.4782698e-16 -0.023228918   -866.0677       346.56842      31.07215       31.161864      57.008593
Averages over the last 6 of 11 rows, steps 500 to 1000:
Temp v_strain v_stress_zz Pxx Pyy Lx Ly v_Lmat
239.671 0.003 0.746724 -6386.44 -5658.36 31.0722 31.1619 57.1796
      1100   242.20127      0.0044         0.97197775    -7167.1311     -6379.8729      31.07215       31.161864      unfix eq

print '=== Phase 5: Tensile Test ==='
=== Phase 5: Tensile Test ===
reset_timestep 0

# グリップ重心間距離で初期材料長を定義
variable zcm_bot equal xcm(bottom,z)
variable zcm_top equal xcm(top,z)
variable tmp_L equal v_zcm_top-v_zcm_bot
variable L0 equal 57.0085934403111
Initial grip distance L0 = 57.0085934403111 Ang

# 引っ張り速度 = erate × L0
variable vpull equal 0.002*v_L0
velocity top set 0.0      1600   240.2904       0.0064         1.1280377     -8166.6813     -7570.0211      31.07215       31.161864      57.373448
      4200   239.28906      0.0168         2.2499571     -14338.964     -13382.897      31.07215       31.161864      57.9.1280377     -8166.6813     -7570.0211      31.07215       31.161864      57.373448
     26000   237.5-14752.028      31.07215       31.161864      62.321794
     29100   237.0572847.152      31.07215       31.161864      63.028701
     38400   241.82293      0.153631.07215       31.161864      65.149421
     50800   237.68386      0.2032         0.212851.161864      67.977047
Fix halt condition for fix-id halt_frac met on step 56000 with value 1
Loop time of 149.936 on 4 procs for 56000 steps with 4335 atoms

Fix halt condition for fix-id halt_frac met on step 56000 with value 1
Loop time of 149.936 on 4 procs for 56000 steps with 4335 atoms
