LAMMPS (10 Dec 2025)
units metal
boundary p p s
atom_style atomic
timestep 0.002
read_data data.interface
Reading data file ...
  orthogonal box = (0 0 0) to (31.515933 31.066736 64.017825)
  reading atoms ...
  4296 atoms

pair_style eam/alloy
pair_coeff * * /mnt/c/Users/iwash/Documents/Repositories/Lammps/potentials/AlCu.eam.alloy Al Cu
Reading eam/alloy potential file /mnt/c/Users/iwash/Documents/Repositories/Lammps/potentials/AlCu.eam.alloy with DATE: 2008-10-01

neighbor 2.0 bin
neigh_modify delay 10 check yes

thermo 100
thermo_style custom step temp pe press pxx pyy lx ly lz

print '=== Phase 0: Shake (High-T limit) ==='
=== Phase 0: Shake (High-T limit) ===
velocity all create 1000.0 55904 dist gaussian
fix shake all nve/limit 0.1
run 1000
Step          Temp          PotEng         Press           Pxx            Pyy             Lx             Ly             Lz
0   1000          -14495.566      3867.5748     -667.94773      8638.9156      31.515933      31.066736      60.322582
      1000   614.18715     -14281.369      2822.8112     -4054.6398      10621.319      31.515933      31.066736      63.594353  Pair    | 1.8015     | 2.0786     | 2.3287     |  17.0 | 83.68

=== Phase 1: 0K Relaxation ===
Setting up cg style minimization ...
  Unit style    : metal
  Current step  : 1000
 (src/min.cpp:222)
velocity all set 0 0 0

# x,y方向の箱寸法 + 原子位置を同時最適化（z方向はshrink-wrap）
print '=== Phase 1: 0K Relaxation ==='
=== Phase 1: 0K Relaxation ===
fix relax all box/relax x 0.0 y 0.0 vmax 0.001
minimize 1.0e-8 1.0e-10 10000 100000
 (src/min.cpp:222)
Step          Temp          PotEng         Press           Pxx            Pyy             Lx             Ly             Lz
1000   0             -14281.369     -3024.7361     -9612.0104      5000.7736      31.515933      31.066736      63.631028
      1200 Loop time of 1.81168 on 4 procs for 498 steps with 4296 atoms

Minimization stats:
  Stopping criterion = linesearch alpha is zero
  Energy initial, next-to-last, final =
  Force two-norm initial, final = 425.1398 39.143481
  Force max component initial, final = 373.54956 30.340647
  Final line search alpha, max atom move = 7.8581719e-12 2.3842202e-10
  Iterations, force evaluations = 498 585

=== Phase 2: Annealing at 600.0K for 10.0ps ===
Setting up Verlet run ...
  Unit style    : metal
  Current step  : 0
  Time step     : 0.002
Step          Temp          PotEng         Press           Pxx            Pyy             Lx             Ly             Lz
0   600           -14523.06       4737.1393      6791.9314      6121.0834      30.749681      30.974557      63.509129
       100   435.29944     -14373.5unfix relax

# 界面近傍の原子配置を緩和（ミスフィット軽減）
print '=== Phase 2: Annealing at 600.0K for 10.0ps ==='
=== Phase 2: Annealing at 600.0K for 10.0ps ===
reset_timestep 0
velocity all create 600.0 55904 dist gaussian
fix ann all npt temp 600.0 600.0 0.1 x 0.0 0.0 1.0 y 0.0 0.0 1.0
run 5000
Step          Temp          PotEng         Press           Pxx            Pyy             Lx             Ly             Lz
0   600           -14523.06       4737.1393      6791.9314      6121.0834      30.749681      30.974557      63.509129
Averages over the last 11 of 21 rows, steps 1000 to 2000:
Temp PotEng Press Pxx Pyy Lx Ly Lz
600.234 -14279 -52.5555 32.0252 -246.941 31.3163 31.4899 63.5334
      4800   603.03237     -14283.859     -1231.5797     -364.30403     -2068.2527      31.184642      31.470935    Neigh   | 0.14923    | 0.26816    | 0.37339    |  18.9 |  1.98

=== Phase 2b: Cooling 600.0K -> 300.0K ===
Setting up Verlet run ...
  Unit style    : metal
  Current step  : 5000
  Time step     : 0.002
Step          Temp          PotEng         Press           Pxx            Pyy             Lx             Ly             Lz
5000   604.6986      -14276.803     -1704.9353     -1078.5718     -2181.4581      31.311171      31.523267      63.498437
      5200   589.18026     -14289.202      603.84216      748.47255      547.93894    unfix ann

print '=== Phase 2b: Cooling 600.0K -> 300.0K ==='
=== Phase 2b: Cooling 600.0K -> 300.0K ===
fix cool all npt temp 600.0 300.0 0.1 x 0.0 0.0 1.0 y 0.0 0.0 1.0
run 5000
Step          Temp          PotEng         Press           Pxx            Pyy             Lx             Ly             Lz
5000   604.6986      -14276.803     -1704.9353     -1078.5718     -2181.4581      31.311171      31.523267      63.498437
Averages over the last 11 of 22 rows, steps 6100 to 7100:
Temp PotEng Press Pxx Pyy Lx Ly Lz
504.968 -14347.7 -34.1565 -2.80226 17.6373 31.2138 31.3978 63.0002
 Modify  | 0.19885    | 0.32467    | 0.6516     |  33.2 |  2.31

=== Phase 3: Define Grips ===
432 atoms in group bottom
263 atoms in group top
3601 atoms in group mobile
Bottom grip: 432 atoms
Top grip:    263 atoms
Mobile:      3601 atoms
=== Phase 4: Equilibration with Grips ===
Setting up Verlet run ...
  Unit style    : metal
  Current step  : 0
  Time step     : 0.002
Step          Temp          PotEng         Press           Pxx            Pyy             Lx             Ly             Lz
0   254.50408     -14479.874     -115.50861      339.4303       182.40359      31.086878      31.231583      62.692991
       100   276.54336     -14469.309     -279.6861       39.291091     -702.73946    unfix cool

# 焼きなまし後の座標を基準にグリップ領域を定義
print '=== Phase 3: Define Grips ==='
=== Phase 3: Define Grips ===
variable zmin equal bound(all,zmin)
variable zmax equal bound(all,zmax)
variable grip_thick equal 5.0
variable zlo_grip equal 1.68680540715506+5
variable zhi_grip equal 64.3669930822713-5

region rgn_bot block INF INF INF INF INF 6.68680540715506
region rgn_top block INF INF INF INF 59.3669930822713 INF
group bottom region rgn_bot
432 atoms in group bottom
group top region rgn_top
263 atoms in group top
group mobile subtract all bottom top
3601 atoms in group mobile

print 'Bottom grip: $(count(bottom)) atoms'
Bottom grip: 432 atoms
print 'Top grip:    $(count(top)) atoms'
Top grip:    263 atoms
print 'Mobile:      $(count(mobile)) atoms'
Mobile:      3601 atoms

print '=== Phase 4: Equilibration with Grips ==='
=== Phase 4: Equilibration with Grips ===
reset_timestep 0
velocity bottom set 0.0 0.0 0.0
velocity top set 0.0 0.0 0.0
# グリップ: nve（時間積分）+ setforce 0（力ゼロ）→ 等速運動
fix nve_bot bottom nve
fix nve_top top nve
fix freeze_bot bottom setforce 0.0 0.0 0.0
fix freeze_top top setforce 0.0 0.0 0.0
fix eq mobile npt temp 300.0 300.0 0.1 x 0.0 0.0 1.0 y 0.0 0.0 1.0
run 5000
Step          Temp          PotEng         Press           Pxx            Pyy             Lx             Ly             Lz
0   254.50408     -14479.874     -115.50861      339.4303       182.40359      31.086878      31.231583      62.692991
Loop time of 13.455 on 4 procs for 5000 steps with 4296 atoms

=== Phase 5: Tensile Test ===
Initial grip distance L0 = 57.6627866314686 Ang
Pull velocity = 0.115325573262937 Ang/ps (erate=0.002/ps)
Setting up Verlet run ...
  Unit style    : metal
  Current step  : 0
  Time step     : 0.002
Step          Temp         v_strain     v_stress_zz        Pxx            Pyy             Lx             Ly           v_Lmat
0   291.06011      1.3554617e-15  0.096648788    412.93222     -510.51409      31.127711      31.304125      57.662787
Averages over the last 6 of 11 rows, steps 500 to 1000:
Temp v_strain v_stress_zz Pxx Pyy Lx Ly v_Lmat
252.204 0.003 0.790044 -5374.97 -5994.87 31.1277 31.3041 57.8358
      1100   253.20566      0.0044         0.84410087    -6273.3787     -6665.446       31.127711      31.304125      unfix eq

print '=== Phase 5: Tensile Test ==='
=== Phase 5: Tensile Test ===
reset_timestep 0

# グリップ重心間距離で初期材料長を定義
variable zcm_bot equal xcm(bottom,z)
variable zcm_top equal xcm(top,z)
variable tmp_L equal v_zcm_top-v_zcm_bot
variable L0 equal 57.6627866314686
Initial grip distance L0 = 57.6627866314686 Ang

# 引っ張り速度 = erate × L0
variable vpull equal 0.002*v_L0
velocity top set 0.0      1600   250.84768      0.0064         0.98393345    -7117.6146     -6924.4396      31.127711      31.304125      58.031828
      4200   250.5702       0.0168         1.95901       -14960.969     -14031.991      31.127711      31.304125      58.6.98393345    -7117.6146     -6924.4396      31.127711      31.304125      58.031828
     26000   249.9-9960.6268      31.127711      31.304125      63.036958
     38400   254.07367      0.153631.127711      31.304125      65.897033
     50800   255.83956      0.2032         0.130591.304125      68.757107
Fix halt condition for fix-id halt_frac met on step 54700 with value 1
Loop time of 151.582 on 4 procs for 54700 steps with 4296 atoms

Fix halt condition for fix-id halt_frac met on step 54700 with value 1
Loop time of 151.582 on 4 procs for 54700 steps with 4296 atoms
